
 Fire Dynamics Simulator

 Current Date     : February  4, 2026  06:08:22
 Revision         : FDS-6.8.0-0-g886e009-release
 Revision Date    : Tue Apr 18 07:06:40 2023 -0400
 Compiler         : ifort version 2021.7.1
 Compilation Date : Apr 18, 2023 15:20:17

 MPI Enabled;    Number of MPI Processes:       1
 OpenMP Disabled

 MPI version: 3.1
 MPI library version: Intel(R) MPI Library 2021.6 for Linux* OS


 Job TITLE        : Formative Assignment 1  Atrium Spill Plume, Medium t2 Fire
 Job ID string    : Michael_Medium_025_002SY


 Grid Dimensions, Mesh     1

   Cells in the X Direction            84
   Cells in the Y Direction            76
   Cells in the Z Direction            44
   Number of Grid Cells            280896


 Physical Dimensions, Mesh     1

   Length (m)                      21.000
   Width  (m)                      19.000
   Height (m)                      11.000
   Initial Time Step (s)            0.120

 Total Number of Grid Cells        280896


 Maximum Cell Aspect Ratio          1.000
 CFL Velocity Norm                      2


 Miscellaneous Parameters

   Simulation Start Time (s)          0.0
   Simulation End Time (s)          300.0
   Background Pressure (Pa)     101325.00
   Ambient Temperature (C)          20.00

   3D Cartesian
   VLES Calculation
   Eddy Viscosity Model:  Deardorff (C_DEARDORFF = 0.10)
   Surface INERT Eddy Viscosity Model:  WALE (C_WALE = 0.60)
   Surface FIRE Eddy Viscosity Model:  WALE (C_WALE = 0.60)
   Surface LEAK Eddy Viscosity Model:  WALE (C_WALE = 0.60)
   Turbulent Prandtl Number:         0.50
   Turbulent Schmidt Number:         0.50


 Pressure solver information

   Solver:                            FFT
   Velocity tolerance (m/s):    1.250E-01
   Press eqn res tol (1/s^2):   3.200E+02
   Max pressure iterations:            10


 Background Stratification

      Z (m)     P_0 (Pa)    TMP_0 (C)
   ------------------------------------
       10.88    101197.59     20.00
       10.62    101200.50     20.00
       10.38    101203.44     20.00
       10.12    101206.37     20.00
        9.88    101209.28     20.00
        9.62    101212.22     20.00
        9.38    101215.15     20.00
        9.12    101218.07     20.00
        8.88    101221.00     20.00
        8.62    101223.94     20.00
        8.38    101226.85     20.00
        8.12    101229.79     20.00
        7.88    101232.70     20.00
        7.62    101235.64     20.00
        7.38    101238.57     20.00
        7.12    101241.48     20.00
        6.88    101244.42     20.00
        6.62    101247.36     20.00
        6.38    101250.27     20.00
        6.12    101253.21     20.00
        5.88    101256.15     20.00
        5.62    101259.06     20.00
        5.38    101262.00     20.00
        5.12    101264.91     20.00
        4.88    101267.85     20.00
        4.62    101270.78     20.00
        4.38    101273.70     20.00
        4.12    101276.63     20.00
        3.88    101279.57     20.00
        3.62    101282.49     20.00
        3.38    101285.42     20.00
        3.12    101288.36     20.00
        2.88    101291.28     20.00
        2.62    101294.21     20.00
        2.38    101297.13     20.00
        2.12    101300.07     20.00
        1.88    101303.01     20.00
        1.62    101305.92     20.00
        1.38    101308.86     20.00
        1.12    101311.80     20.00
        0.88    101314.71     20.00
        0.62    101317.65     20.00
        0.38    101320.59     20.00
        0.12    101323.50     20.00


 Mass Fraction Transformation Matrix to Convert Species Mixtures (Columns) to Primitive Species (Rows)

                         AIR       PROPANE   PRODUCTS
   NITROGEN              0.762470  0.000000  0.716194
   OXYGEN                0.230997  0.000000  0.000000
   CARBON DIOXIDE        0.000591  0.000000  0.177828
   WATER VAPOR           0.005941  0.000000  0.104764
   CARBON MONOXIDE       0.000000  0.000000  0.000000
   SOOT                  0.000000  0.000000  0.001214
   HYDROGEN              0.000000  0.000000  0.000000
   HYDROGEN CYANIDE      0.000000  0.000000  0.000000
   PROPANE               0.000000  1.000000  0.000000


 Primitive Species Information

   NITROGEN
   Gas Species
   Molecular Weight (g/mol)                28.01340
   Ambient Density (kg/m^3)                1.165
           Enthalpy of Formation (J/kg)  0.000E+00

   OXYGEN
   Gas Species
   Molecular Weight (g/mol)                31.99880
   Ambient Density (kg/m^3)                1.330
           Enthalpy of Formation (J/kg)  0.000E+00

   CARBON DIOXIDE
   Gas Species
   Molecular Weight (g/mol)                44.00950
   Ambient Density (kg/m^3)                1.830
           Enthalpy of Formation (J/kg) -8.941E+06

   WATER VAPOR
   Gas Species
   Molecular Weight (g/mol)                18.01528
   Ambient Density (kg/m^3)                0.749
           Enthalpy of Formation (J/kg) -1.342E+07

   CARBON MONOXIDE
   Gas Species
   Molecular Weight (g/mol)                28.01010
   Ambient Density (kg/m^3)                1.164
           Enthalpy of Formation (J/kg) -3.946E+06

   SOOT
   Gas Species
   Molecular Weight (g/mol)                12.01070
   Ambient Density (kg/m^3)                0.499
           Enthalpy of Formation (J/kg)  0.000E+00

   HYDROGEN
   Gas Species
   Molecular Weight (g/mol)                 2.01588
   Ambient Density (kg/m^3)                0.084
           Enthalpy of Formation (J/kg)  0.000E+00

   HYDROGEN CYANIDE
   Gas Species
   Molecular Weight (g/mol)                27.02534
   Ambient Density (kg/m^3)                1.123
           Enthalpy of Formation (J/kg)  4.924E+06

   PROPANE
   Gas Species
   Molecular Weight (g/mol)                44.09562
   Ambient Density (kg/m^3)                1.833
           Enthalpy of Formation (J/kg) -2.374E+06


 Tracked (Lumped) Species Information

   AIR
   Molecular Weight (g/mol)            28.75198
   Ambient Density (kg/m^3)            1.195
   Initial Mass Fraction               1.000
   Enthalpy of Formation (J/kg)     -8.504E+04

   Sub Species                    Mass Fraction     Mole Fraction
   NITROGEN                       7.624699E-01      7.825727E-01
   OXYGEN                         2.309974E-01      2.075588E-01
   CARBON DIOXIDE                 5.914650E-04      3.864118E-04
   WATER VAPOR                    5.941209E-03      9.482037E-03
 
     Viscosity (kg/m/s) Ambient,  293 K:  1.796E-05
                                  500 K:  2.612E-05
                                 1000 K:  4.125E-05
                                 1500 K:  5.371E-05
                                 2000 K:  6.476E-05
   Therm. Cond. (W/m/K) Ambient,  293 K:  2.556E-02
                                  500 K:  3.814E-02
                                 1000 K:  6.686E-02
                                 1500 K:  9.249E-02
                                 2000 K:  1.153E-01
        Enthalpy (J/kg) Ambient,  293 K: -9.012E+04
                                  500 K:  1.222E+05
                                 1000 K:  6.721E+05
                                 1500 K:  1.270E+06
                                 2000 K:  1.896E+06
    Spec. Heat (J/kg/K) Ambient,  293 K:  1.016E+03
                                  500 K:  1.042E+03
                                 1000 K:  1.156E+03
                                 1500 K:  1.229E+03
                                 2000 K:  1.270E+03
   Diff. Coeff. (m^2/s) Ambient,  293 K:  1.991E-05
                                  500 K:  4.961E-05
                                 1000 K:  1.580E-04
                                 1500 K:  3.095E-04
                                 2000 K:  4.984E-04
 Gibbs Energy Amb. (kJ/mol),  293 K: -5.873E+01
                                  500 K: -1.007E+02
                                 1000 K: -2.117E+02
                                 1500 K: -3.312E+02
                                 2000 K: -4.568E+02

   PROPANE
   Molecular Weight (g/mol)            44.09562
   Ambient Density (kg/m^3)            1.833
   Initial Mass Fraction               0.000
   Enthalpy of Formation (J/kg)     -2.374E+06

   Sub Species                    Mass Fraction     Mole Fraction
   PROPANE                        1.000000E+00      1.000000E+00
 
     Viscosity (kg/m/s) Ambient,  293 K:  8.079E-06
                                  500 K:  1.310E-05
                                 1000 K:  2.234E-05
                                 1500 K:  2.955E-05
                                 2000 K:  3.574E-05
   Therm. Cond. (W/m/K) Ambient,  293 K:  1.821E-02
                                  500 K:  4.581E-02
                                 1000 K:  1.212E-01
                                 1500 K:  1.890E-01
                                 2000 K:  2.465E-01
        Enthalpy (J/kg) Ambient,  293 K: -2.382E+06
                                  500 K: -1.946E+06
                                 1000 K: -2.769E+05
                                 1500 K:  1.900E+06
                                 2000 K:  4.336E+06
    Spec. Heat (J/kg/K) Ambient,  293 K:  1.646E+03
                                  500 K:  2.553E+03
                                 1000 K:  3.960E+03
                                 1500 K:  4.669E+03
                                 2000 K:  5.034E+03
   Diff. Coeff. (m^2/s) Ambient,  293 K:  1.110E-05
                                  500 K:  2.862E-05
                                 1000 K:  9.316E-05
                                 1500 K:  1.833E-04
                                 2000 K:  2.954E-04
 Gibbs Energy Amb. (kJ/mol),  293 K: -1.839E+02
                                  500 K: -2.447E+02
                                 1000 K: -4.295E+02
                                 1500 K: -6.584E+02
                                 2000 K: -9.217E+02

   PRODUCTS
   Molecular Weight (g/mol)            28.15067
   Ambient Density (kg/m^3)            1.170
   Initial Mass Fraction               0.000
   Enthalpy of Formation (J/kg)     -2.996E+06

   Sub Species                    Mass Fraction     Mole Fraction
   NITROGEN                       7.161941E-01      7.197034E-01
   CARBON DIOXIDE                 1.778284E-01      1.137479E-01
   WATER VAPOR                    1.047637E-01      1.637037E-01
   CARBON MONOXIDE                0.000000E+00      0.000000E+00
   SOOT                           1.213841E-03      2.845000E-03
   HYDROGEN CYANIDE               0.000000E+00      0.000000E+00
 
     Viscosity (kg/m/s) Ambient,  293 K:  1.612E-05
                                  500 K:  2.389E-05
                                 1000 K:  3.893E-05
                                 1500 K:  5.143E-05
                                 2000 K:  6.244E-05
   Therm. Cond. (W/m/K) Ambient,  293 K:  2.340E-02
                                  500 K:  3.617E-02
                                 1000 K:  6.711E-02
                                 1500 K:  9.629E-02
                                 2000 K:  1.225E-01
        Enthalpy (J/kg) Ambient,  293 K: -3.002E+06
                                  500 K: -2.771E+06
                                 1000 K: -2.160E+06
                                 1500 K: -1.482E+06
                                 2000 K: -7.633E+05
    Spec. Heat (J/kg/K) Ambient,  293 K:  1.090E+03
                                  500 K:  1.143E+03
                                 1000 K:  1.298E+03
                                 1500 K:  1.404E+03
                                 2000 K:  1.467E+03
   Diff. Coeff. (m^2/s) Ambient,  293 K:  1.952E-05
                                  500 K:  4.957E-05
                                 1000 K:  1.601E-04
                                 1500 K:  3.148E-04
                                 2000 K:  5.078E-04
 Gibbs Energy Amb. (kJ/mol),  293 K: -1.525E+02
                                  500 K: -1.946E+02
                                 1000 K: -3.070E+02
                                 1500 K: -4.290E+02
                                 2000 K: -5.578E+02


 Gas Phase Reaction Information

      Fuel                                           Heat of Combustion (kJ/kg)
      PROPANE                                                        45679.3589

      Primitive Species Stoich. Coeff.
      Species ID                                                          Molar
      NITROGEN                                                         0.000000
      OXYGEN                                                          -4.926573
      CARBON DIOXIDE                                                   2.926573
      WATER VAPOR                                                      4.000000
      SOOT                                                             0.073427
      PROPANE                                                         -1.000000

      Tracked (Lumped) Species Stoich. Coeff.
      Species ID                                             Molar         Mass
      AIR                                               -23.735791   -15.476618
      PROPANE                                            -1.000000    -1.000000
      PRODUCTS                                           25.809218    16.476618

      Reaction Kinetics

      Fast chemistry

      ODE Solver:  EXPLICIT EULER

      Extinction Model:  EXTINCTION 1
      Auto-Ignition Temperature (C):            -273.1
      Critical Flame Temperature (C):           1447.0

      Prescribed Radiative Fraction:             0.290


 Material Information


 Surface Conditions

   0 INERT (DEFAULT)

   1 FIRE
     HRR Per Unit Area (kW/m2)       1200.0
     PROPANE Mass Flux (kg/s/m2)   2.627E-02

   2 LEAK
     Normal Velocity (m/s)        -0.050
     AIR Mass Fraction         1.000

   3 OPEN
     Passive Vent to Atmosphere

   4 MIRROR
     Symmetry Plane

   5 INTERPOLATED

   6 PERIODIC

   7 HVAC

   8 MASSLESS TRACER

   9 DROPLET

  10 MASSLESS TARGET

  11 PERIODIC FLOW ONLY


 Lagrangian Particle Classes


 Cut-off Density and Temperature

    Minimum Temperature:  -259.1 C
    Maximum Temperature:  2726.8 C
    Minimum Density:  1.195E-01 kg/m3
    Maximum Density:  7.677E+01 kg/m3


 Device Information

   1 ID: DOOR_TEMP
     QUANTITY: TEMPERATURE
     Coordinates (X,Y,Z):    7.500000E+00    7.000000E+00    6.500000E+00
     TEMPORAL STATISTIC: TIME AVERAGE
   2 ID: DOOR_VIS
     QUANTITY: VISIBILITY
     Species ID: SOOT
     Coordinates (X,Y,Z):    7.500000E+00    7.000000E+00    6.500000E+00
     TEMPORAL STATISTIC: TIME AVERAGE
   3 ID: LAYER_HEIGHT_DOOR
     QUANTITY: LAYER HEIGHT
     Coordinates (X,Y,Z):    7.250000E+00    7.250000E+00    6.250000E+00
     TEMPORAL STATISTIC: TIME AVERAGE


 Slice File Information, Mesh     1

   1 Nodes:   0  84   0  76  26  26, Quantity: TEMPERATURE
   2 Nodes:   0  84   0  76  26  26, Quantity: SOOT VISIBILITY
   3 Nodes:  56  56   0  76   0  44, Quantity: VELOCITY


 Radiation Model Information

   Number of control angles  104
   Time step increment         3
   Angle increment             5
   Theta band N_phi   Solid angle
     1:        4     0.120
     2:       12     0.114
     3:       16     0.127
     4:       20     0.120
     5:       20     0.120
     6:       16     0.127
     7:       12     0.114
     8:        4     0.120
   Using gray gas absorption.
   Mean beam length  1.000E-01 m


 Pressure Zone Information

   1 Volume: 1.2545E+03 m³, Cells: 80288, Mesh: 1, Indices: (72,68,32)
 
 

 Run Time Diagnostics

       Time Step       1   February  4, 2026  06:08:25
       Step Size:    0.120E+00 s, Total Time:       0.12 s
       Pressure Iterations: 1
       Maximum Velocity Error:  0.10E-01 on Mesh 1 at (1,70,5)
       Maximum Pressure Error:  0.18E-03 on Mesh 1 at (74,70,1)
       ---------------------------------------------------------------
       Max CFL number:  0.20E-01 at (83,1,43)
       Max divergence:  0.31E-05 at (72,62,36)
       Min divergence: -0.25E-04 at (67,34,3)
       Max VN number:   0.19E-01 at (3,23,28)
 
       Time Step       2   February  4, 2026  06:08:25
       Step Size:    0.120E+00 s, Total Time:       0.24 s
       Pressure Iterations: 1
       Maximum Velocity Error:  0.16E-01 on Mesh 1 at (64,63,34)
       Maximum Pressure Error:  0.17E-03 on Mesh 1 at (1,70,1)
       ---------------------------------------------------------------
       Max CFL number:  0.38E-01 at (84,76,44)
       Max divergence:  0.22E-01 at (72,34,3)
       Min divergence: -0.58E-05 at (32,47,15)
       Max VN number:   0.16E-01 at (84,18,28)
       Total Heat Release Rate:              1.753 kW
 
       Time Step       3   February  4, 2026  06:08:27
       Step Size:    0.120E+00 s, Total Time:       0.36 s
       Pressure Iterations: 1
       Maximum Velocity Error:  0.22E-01 on Mesh 1 at (47,68,6)
       Maximum Pressure Error:  0.15E-01 on Mesh 1 at (72,34,3)
       ---------------------------------------------------------------
       Max CFL number:  0.58E-01 at (84,76,44)
       Max divergence:  0.84E-01 at (72,34,3)
       Min divergence: -0.11E-04 at (15,50,15)
       Max VN number:   0.21E-01 at (55,71,34)
       Total Heat Release Rate:              4.054 kW
 
       Time Step       4   February  4, 2026  06:08:27
       Step Size:    0.120E+00 s, Total Time:       0.48 s
       Pressure Iterations: 1
       Maximum Velocity Error:  0.33E-01 on Mesh 1 at (47,68,3)
       Maximum Pressure Error:  0.24E-01 on Mesh 1 at (72,34,3)
       ---------------------------------------------------------------
       Max CFL number:  0.94E-01 at (2,71,35)
       Max divergence:  0.14E+00 at (72,34,3)
       Min divergence: -0.19E-04 at (15,50,15)
       Max VN number:   0.45E-01 at (8,71,34)
       Total Heat Release Rate:              7.423 kW
       Radiation Loss to Boundaries:        -0.002 kW
 
       Time Step       5   February  4, 2026  06:08:28
       Step Size:    0.120E+00 s, Total Time:       0.60 s
       Pressure Iterations: 1
       Maximum Velocity Error:  0.40E-01 on Mesh 1 at (47,68,3)
       Maximum Pressure Error:  0.25E+00 on Mesh 1 at (72,34,3)
       ---------------------------------------------------------------
       Max CFL number:  0.14E+00 at (2,71,35)
       Max divergence:  0.17E+00 at (72,33,3)
       Min divergence: -0.25E-04 at (3,49,15)
       Max VN number:   0.72E-01 at (26,71,34)
       Total Heat Release Rate:             10.415 kW
       Radiation Loss to Boundaries:        -0.719 kW
 
       Time Step       6   February  4, 2026  06:08:29
       Step Size:    0.120E+00 s, Total Time:       0.72 s
       Pressure Iterations: 1
       Maximum Velocity Error:  0.41E-01 on Mesh 1 at (47,68,3)
       Maximum Pressure Error:  0.55E+00 on Mesh 1 at (72,33,3)
       ---------------------------------------------------------------
       Max CFL number:  0.18E+00 at (2,71,35)
       Max divergence:  0.21E+00 at (72,33,3)
       Min divergence: -0.31E-04 at (3,49,15)
       Max VN number:   0.90E-01 at (26,71,34)
       Total Heat Release Rate:             14.046 kW
       Radiation Loss to Boundaries:        -1.315 kW
 
       Time Step       7   February  4, 2026  06:08:30
       Step Size:    0.120E+00 s, Total Time:       0.84 s
       Pressure Iterations: 1
       Maximum Velocity Error:  0.34E-01 on Mesh 1 at (47,68,3)
       Maximum Pressure Error:  0.96E+00 on Mesh 1 at (72,33,3)
       ---------------------------------------------------------------
       Max CFL number:  0.22E+00 at (2,71,35)
       Max divergence:  0.20E+00 at (72,33,3)
       Min divergence: -0.35E-04 at (32,47,15)
       Max VN number:   0.10E+00 at (75,26,34)
       Total Heat Release Rate:             16.495 kW
       Radiation Loss to Boundaries:        -2.126 kW
 
       Time Step       8   February  4, 2026  06:08:31
       Step Size:    0.120E+00 s, Total Time:       0.96 s
       Pressure Iterations: 1
       Maximum Velocity Error:  0.25E-01 on Mesh 1 at (72,68,3)
       Maximum Pressure Error:  0.11E+01 on Mesh 1 at (72,33,3)
       ---------------------------------------------------------------
       Max CFL number:  0.24E+00 at (2,71,35)
       Max divergence:  0.19E+00 at (72,33,3)
       Min divergence: -0.39E-04 at (32,47,15)
       Max VN number:   0.11E+00 at (75,26,34)
       Total Heat Release Rate:             19.382 kW
       Radiation Loss to Boundaries:        -3.281 kW
 
       Time Step       9   February  4, 2026  06:08:32
       Step Size:    0.120E+00 s, Total Time:       1.08 s
       Pressure Iterations: 1
       Maximum Velocity Error:  0.26E-01 on Mesh 1 at (72,31,19)
       Maximum Pressure Error:  0.11E+01 on Mesh 1 at (72,33,3)
       ---------------------------------------------------------------
       Max CFL number:  0.26E+00 at (2,71,35)
       Max divergence:  0.15E+00 at (72,33,3)
       Min divergence: -0.41E-04 at (47,58,31)
       Max VN number:   0.11E+00 at (75,26,34)
       Total Heat Release Rate:             20.627 kW
       Radiation Loss to Boundaries:        -3.876 kW
 
       Time Step      10   February  4, 2026  06:08:33
       Step Size:    0.120E+00 s, Total Time:       1.20 s
       Pressure Iterations: 1
       Maximum Velocity Error:  0.29E-01 on Mesh 1 at (72,31,19)
       Maximum Pressure Error:  0.93E+00 on Mesh 1 at (72,33,3)
       ---------------------------------------------------------------
       Max CFL number:  0.27E+00 at (2,71,35)
       Max divergence:  0.13E+00 at (71,33,3)
       Min divergence: -0.34E-04 at (47,58,31)
       Max VN number:   0.10E+00 at (75,26,34)
       Total Heat Release Rate:             21.449 kW
       Radiation Loss to Boundaries:        -7.966 kW
 
       Time Step      20   February  4, 2026  06:08:42
       Step Size:    0.120E+00 s, Total Time:       2.41 s
       Pressure Iterations: 1
       Maximum Velocity Error:  0.25E-01 on Mesh 1 at (72,68,32)
       Maximum Pressure Error:  0.27E+00 on Mesh 1 at (59,34,3)
       ---------------------------------------------------------------
       Max CFL number:  0.32E+00 at (72,34,3)
       Max divergence:  0.13E+00 at (67,34,3)
       Min divergence: -0.65E-04 at (56,3,31)
       Max VN number:   0.21E+00 at (72,35,4)
       Total Heat Release Rate:             34.788 kW
       Radiation Loss to Boundaries:        -7.193 kW
 
       Time Step      30   February  4, 2026  06:08:51
       Step Size:    0.120E+00 s, Total Time:       3.61 s
       Pressure Iterations: 1
       Maximum Velocity Error:  0.21E-01 on Mesh 1 at (72,34,7)
       Maximum Pressure Error:  0.51E+00 on Mesh 1 at (72,34,7)
       ---------------------------------------------------------------
       Max CFL number:  0.53E+00 at (72,34,6)
       Max divergence:  0.13E+00 at (69,33,3)
       Min divergence: -0.15E-01 at (71,34,6)
       Max VN number:   0.54E+00 at (72,35,5)
       Total Heat Release Rate:             48.742 kW
       Radiation Loss to Boundaries:        -6.911 kW
 
       Time Step      40   February  4, 2026  06:09:00
       Step Size:    0.120E+00 s, Total Time:       4.81 s
       Pressure Iterations: 1
       Maximum Velocity Error:  0.59E-01 on Mesh 1 at (72,34,11)
       Maximum Pressure Error:  0.99E+00 on Mesh 1 at (72,34,11)
       ---------------------------------------------------------------
       Max CFL number:  0.88E+00 at (72,34,9)
       Max divergence:  0.22E+00 at (59,33,3)
       Min divergence: -0.36E-01 at (70,33,8)
       Max VN number:   0.48E+00 at (72,34,6)
       Total Heat Release Rate:             70.154 kW
       Radiation Loss to Boundaries:       -13.791 kW
 
       Time Step      50   February  4, 2026  06:09:09
       Step Size:    0.106E+00 s, Total Time:       5.91 s
       Pressure Iterations: 1
       Maximum Velocity Error:  0.71E-01 on Mesh 1 at (72,35,14)
       Maximum Pressure Error:  0.92E+00 on Mesh 1 at (64,33,12)
       ---------------------------------------------------------------
       Max CFL number:  0.95E+00 at (68,33,9)
       Max divergence:  0.27E+00 at (68,33,3)
       Min divergence: -0.64E-01 at (70,33,12)
       Max VN number:   0.54E+00 at (72,35,8)
       Total Heat Release Rate:             87.241 kW
       Radiation Loss to Boundaries:       -19.379 kW
 
       Time Step      60   February  4, 2026  06:09:18
       Step Size:    0.856E-01 s, Total Time:       6.84 s
       Pressure Iterations: 1
       Maximum Velocity Error:  0.65E-01 on Mesh 1 at (63,33,16)
       Maximum Pressure Error:  0.78E+00 on Mesh 1 at (64,33,16)
       ---------------------------------------------------------------
       Max CFL number:  0.89E+00 at (63,33,12)
       Max divergence:  0.35E+00 at (59,33,3)
       Min divergence: -0.75E-01 at (61,33,5)
       Max VN number:   0.52E+00 at (72,37,15)
       Total Heat Release Rate:            101.121 kW
       Radiation Loss to Boundaries:       -20.952 kW
 
       Time Step      70   February  4, 2026  06:09:27
       Step Size:    0.856E-01 s, Total Time:       7.70 s
       Pressure Iterations: 1
       Maximum Velocity Error:  0.61E-01 on Mesh 1 at (62,35,16)
       Maximum Pressure Error:  0.60E+00 on Mesh 1 at (60,31,16)
       ---------------------------------------------------------------
       Max CFL number:  0.92E+00 at (62,33,13)
       Max divergence:  0.43E+00 at (59,33,3)
       Min divergence: -0.77E-01 at (61,33,5)
       Max VN number:   0.60E+00 at (72,33,12)
       Total Heat Release Rate:            112.460 kW
       Radiation Loss to Boundaries:       -23.531 kW
 
       Time Step      80   February  4, 2026  06:09:36
       Step Size:    0.856E-01 s, Total Time:       8.55 s
       Pressure Iterations: 1
       Maximum Velocity Error:  0.50E-01 on Mesh 1 at (60,30,13)
       Maximum Pressure Error:  0.62E+00 on Mesh 1 at (62,31,11)
       ---------------------------------------------------------------
       Max CFL number:  0.88E+00 at (60,31,11)
       Max divergence:  0.53E+00 at (58,33,3)
       Min divergence: -0.84E-01 at (61,33,5)
       Max VN number:   0.77E+00 at (72,33,13)
       Total Heat Release Rate:            126.752 kW
       Radiation Loss to Boundaries:       -26.309 kW
 
       Time Step      90   February  4, 2026  06:09:45
       Step Size:    0.731E-01 s, Total Time:       9.31 s
       Pressure Iterations: 1
       Maximum Velocity Error:  0.40E-01 on Mesh 1 at (60,30,13)
       Maximum Pressure Error:  0.55E+00 on Mesh 1 at (60,31,13)
       ---------------------------------------------------------------
       Max CFL number:  0.82E+00 at (60,31,13)
       Max divergence:  0.53E+00 at (65,33,3)
       Min divergence: -0.11E+00 at (61,33,5)
       Max VN number:   0.87E+00 at (64,31,12)
       Total Heat Release Rate:            139.047 kW
       Radiation Loss to Boundaries:       -30.757 kW
 
       Time Step     100   February  4, 2026  06:09:54
       Step Size:    0.711E-01 s, Total Time:      10.07 s
       Pressure Iterations: 1
       Maximum Velocity Error:  0.52E-01 on Mesh 1 at (63,30,13)
       Maximum Pressure Error:  0.11E+01 on Mesh 1 at (67,31,3)
       ---------------------------------------------------------------
       Max CFL number:  0.90E+00 at (69,37,16)
       Max divergence:  0.59E+00 at (70,33,3)
       Min divergence: -0.13E+00 at (61,33,5)
       Max VN number:   0.76E+00 at (66,31,11)
       Total Heat Release Rate:            156.415 kW
       Radiation Loss to Boundaries:       -32.341 kW
 
       Time Step     200   February  4, 2026  06:11:27
       Step Size:    0.550E-01 s, Total Time:      15.58 s
       Pressure Iterations: 1
       Maximum Velocity Error:  0.85E-01 on Mesh 1 at (66,30,16)
       Maximum Pressure Error:  0.50E+01 on Mesh 1 at (66,31,16)
       ---------------------------------------------------------------
       Max CFL number:  0.86E+00 at (68,45,17)
       Max divergence:  0.85E+00 at (67,33,3)
       Min divergence: -0.24E+00 at (72,31,5)
       Max VN number:   0.81E+00 at (64,31,15)
       Total Heat Release Rate:            235.876 kW
       Radiation Loss to Boundaries:       -55.964 kW
 
       Time Step     300   February  4, 2026  06:12:59
       Step Size:    0.447E-01 s, Total Time:      20.58 s
       Pressure Iterations: 2
       Maximum Velocity Error:  0.38E-01 on Mesh 1 at (72,30,13)
       Maximum Pressure Error:  0.13E+02 on Mesh 1 at (72,31,13)
       ---------------------------------------------------------------
       Max CFL number:  0.92E+00 at (69,31,13)
       Max divergence:  0.11E+01 at (66,33,3)
       Min divergence: -0.23E+00 at (61,32,7)
       Max VN number:   0.60E+00 at (72,45,29)
       Total Heat Release Rate:            310.030 kW
       Radiation Loss to Boundaries:       -77.170 kW
 
       Time Step     400   February  4, 2026  06:14:31
       Step Size:    0.370E-01 s, Total Time:      25.02 s
       Pressure Iterations: 1
       Maximum Velocity Error:  0.12E+00 on Mesh 1 at (72,39,16)
       Maximum Pressure Error:  0.98E+01 on Mesh 1 at (72,38,16)
       ---------------------------------------------------------------
       Max CFL number:  0.91E+00 at (72,38,16)
       Max divergence:  0.13E+01 at (68,33,3)
       Min divergence: -0.33E+00 at (72,31,3)
       Max VN number:   0.57E+00 at (72,32,14)
       Total Heat Release Rate:            381.143 kW
       Radiation Loss to Boundaries:       -96.004 kW
 
       Time Step     500   February  4, 2026  06:16:04
       Step Size:    0.361E-01 s, Total Time:      28.93 s
       Pressure Iterations: 2
       Maximum Velocity Error:  0.25E-01 on Mesh 1 at (72,40,15)
       Maximum Pressure Error:  0.67E+01 on Mesh 1 at (72,39,15)
       ---------------------------------------------------------------
       Max CFL number:  0.84E+00 at (72,39,15)
       Max divergence:  0.14E+01 at (70,33,3)
       Min divergence: -0.43E+00 at (70,32,6)
       Max VN number:   0.53E+00 at (72,55,30)
       Total Heat Release Rate:            439.391 kW
       Radiation Loss to Boundaries:      -106.967 kW
 
       Time Step     600   February  4, 2026  06:17:38
       Step Size:    0.377E-01 s, Total Time:      32.81 s
       Pressure Iterations: 2
       Maximum Velocity Error:  0.31E-01 on Mesh 1 at (68,30,13)
       Maximum Pressure Error:  0.27E+02 on Mesh 1 at (68,31,13)
       ---------------------------------------------------------------
       Max CFL number:  0.96E+00 at (68,31,11)
       Max divergence:  0.16E+01 at (71,33,3)
       Min divergence: -0.49E+00 at (61,33,7)
       Max VN number:   0.80E+00 at (62,31,15)
       Total Heat Release Rate:            491.983 kW
       Radiation Loss to Boundaries:      -121.578 kW
 
       Time Step     700   February  4, 2026  06:19:12
       Step Size:    0.387E-01 s, Total Time:      36.27 s
       Pressure Iterations: 2
       Maximum Velocity Error:  0.47E-01 on Mesh 1 at (72,30,16)
       Maximum Pressure Error:  0.15E+02 on Mesh 1 at (68,31,12)
       ---------------------------------------------------------------
       Max CFL number:  0.99E+00 at (71,37,16)
       Max divergence:  0.18E+01 at (71,33,3)
       Min divergence: -0.30E+00 at (62,34,7)
       Max VN number:   0.55E+00 at (72,34,14)
       Total Heat Release Rate:            543.082 kW
       Radiation Loss to Boundaries:      -139.539 kW
 
       Time Step     800   February  4, 2026  06:20:45
       Step Size:    0.367E-01 s, Total Time:      39.96 s
       Pressure Iterations: 1
       Maximum Velocity Error:  0.11E+00 on Mesh 1 at (72,51,27)
       Maximum Pressure Error:  0.15E+02 on Mesh 1 at (67,31,13)
       ---------------------------------------------------------------
       Max CFL number:  0.85E+00 at (72,50,26)
       Max divergence:  0.19E+01 at (71,33,3)
       Min divergence: -0.34E+00 at (68,31,13)
       Max VN number:   0.99E+00 at (70,31,15)
       Total Heat Release Rate:            610.160 kW
       Radiation Loss to Boundaries:      -162.101 kW
 
       Time Step     900   February  4, 2026  06:22:19
       Step Size:    0.351E-01 s, Total Time:      43.50 s
       Pressure Iterations: 1
       Maximum Velocity Error:  0.11E+00 on Mesh 1 at (70,30,13)
       Maximum Pressure Error:  0.26E+02 on Mesh 1 at (72,31,16)
       ---------------------------------------------------------------
       Max CFL number:  0.85E+00 at (66,31,10)
       Max divergence:  0.20E+01 at (71,33,3)
       Min divergence: -0.55E+00 at (71,37,16)
       Max VN number:   0.72E+00 at (72,47,29)
       Total Heat Release Rate:            658.434 kW
       Radiation Loss to Boundaries:      -175.275 kW
 
       Time Step    1000   February  4, 2026  06:23:54
       Step Size:    0.330E-01 s, Total Time:      46.94 s
       Pressure Iterations: 2
       Maximum Velocity Error:  0.35E-01 on Mesh 1 at (72,31,14)
       Maximum Pressure Error:  0.18E+02 on Mesh 1 at (72,31,14)
       ---------------------------------------------------------------
       Max CFL number:  0.87E+00 at (70,40,16)
       Max divergence:  0.25E+01 at (65,33,3)
       Min divergence: -0.63E+00 at (64,33,6)
       Max VN number:   0.79E+00 at (72,32,15)
       Total Heat Release Rate:            714.618 kW
       Radiation Loss to Boundaries:      -186.446 kW
 
       Time Step    1100   February  4, 2026  06:25:28
       Step Size:    0.351E-01 s, Total Time:      50.29 s
       Pressure Iterations: 2
       Maximum Velocity Error:  0.46E-01 on Mesh 1 at (72,31,12)
       Maximum Pressure Error:  0.36E+02 on Mesh 1 at (72,31,12)
       ---------------------------------------------------------------
       Max CFL number:  0.94E+00 at (72,33,13)
       Max divergence:  0.21E+01 at (70,33,3)
       Min divergence: -0.58E+00 at (64,34,6)
       Max VN number:   0.98E+00 at (62,31,15)
       Total Heat Release Rate:            766.285 kW
       Radiation Loss to Boundaries:      -206.588 kW
 
       Time Step    1200   February  4, 2026  06:27:01
       Step Size:    0.339E-01 s, Total Time:      53.58 s
       Pressure Iterations: 1
       Maximum Velocity Error:  0.12E+00 on Mesh 1 at (72,34,16)
       Maximum Pressure Error:  0.23E+02 on Mesh 1 at (72,31,16)
       ---------------------------------------------------------------
       Max CFL number:  0.86E+00 at (69,31,13)
       Max divergence:  0.23E+01 at (66,33,3)
       Min divergence: -0.37E+00 at (62,32,12)
       Max VN number:   0.65E+00 at (67,31,14)
       Total Heat Release Rate:            806.441 kW
       Radiation Loss to Boundaries:      -234.302 kW
 
       Time Step    1300   February  4, 2026  06:28:36
       Step Size:    0.305E-01 s, Total Time:      56.68 s
       Pressure Iterations: 2
       Maximum Velocity Error:  0.35E-01 on Mesh 1 at (71,30,16)
       Maximum Pressure Error:  0.20E+02 on Mesh 1 at (72,31,12)
       ---------------------------------------------------------------
       Max CFL number:  0.84E+00 at (72,31,13)
       Max divergence:  0.36E+01 at (61,34,3)
       Min divergence: -0.63E+00 at (64,33,7)
       Max VN number:   0.68E+00 at (72,33,15)
       Total Heat Release Rate:            878.781 kW
       Radiation Loss to Boundaries:      -240.069 kW
 
       Time Step    1400   February  4, 2026  06:30:10
       Step Size:    0.299E-01 s, Total Time:      59.70 s
       Pressure Iterations: 1
       Maximum Velocity Error:  0.10E+00 on Mesh 1 at (72,31,16)
       Maximum Pressure Error:  0.19E+02 on Mesh 1 at (61,33,3)
       ---------------------------------------------------------------
       Max CFL number:  0.89E+00 at (69,39,16)
       Max divergence:  0.26E+01 at (67,33,3)
       Min divergence: -0.53E+00 at (72,32,3)
       Max VN number:   0.54E+00 at (72,44,23)
       Total Heat Release Rate:            888.941 kW
       Radiation Loss to Boundaries:      -258.115 kW
 
       Time Step    1500   February  4, 2026  06:31:43
       Step Size:    0.291E-01 s, Total Time:      62.62 s
       Pressure Iterations: 2
       Maximum Velocity Error:  0.57E-01 on Mesh 1 at (72,36,16)
       Maximum Pressure Error:  0.50E+02 on Mesh 1 at (72,36,16)
       ---------------------------------------------------------------
       Max CFL number:  0.92E+00 at (72,34,16)
       Max divergence:  0.24E+01 at (70,33,3)
       Min divergence: -0.70E+00 at (70,38,16)
       Max VN number:   0.66E+00 at (72,34,14)
       Total Heat Release Rate:            955.316 kW
       Radiation Loss to Boundaries:      -277.236 kW
 
       Time Step    1600   February  4, 2026  06:33:17
       Step Size:    0.290E-01 s, Total Time:      65.51 s
       Pressure Iterations: 2
       Maximum Velocity Error:  0.21E-01 on Mesh 1 at (72,31,16)
       Maximum Pressure Error:  0.17E+02 on Mesh 1 at (68,34,16)
       ---------------------------------------------------------------
       Max CFL number:  0.81E+00 at (67,31,11)
       Max divergence:  0.31E+01 at (67,33,3)
       Min divergence: -0.39E+00 at (72,31,5)
       Max VN number:   0.97E+00 at (70,31,15)
       Total Heat Release Rate:            990.561 kW
       Radiation Loss to Boundaries:      -284.275 kW
 
       Time Step    1700   February  4, 2026  06:34:51
       Step Size:    0.291E-01 s, Total Time:      68.44 s
       Pressure Iterations: 2
       Maximum Velocity Error:  0.35E-01 on Mesh 1 at (59,33,2)
       Maximum Pressure Error:  0.18E+03 on Mesh 1 at (59,33,3)
       ---------------------------------------------------------------
       Max CFL number:  0.81E+00 at (61,31,16)
       Max divergence:  0.38E+01 at (68,33,3)
       Min divergence: -0.91E+00 at (65,34,8)
       Max VN number:   0.74E+00 at (62,31,14)
       Total Heat Release Rate:           1045.020 kW
       Radiation Loss to Boundaries:      -310.951 kW
 
       Time Step    1800   February  4, 2026  06:36:26
       Step Size:    0.263E-01 s, Total Time:      71.29 s
       Pressure Iterations: 1
       Maximum Velocity Error:  0.97E-01 on Mesh 1 at (72,43,18)
       Maximum Pressure Error:  0.20E+02 on Mesh 1 at (72,31,9)
       ---------------------------------------------------------------
       Max CFL number:  0.86E+00 at (72,43,18)
       Max divergence:  0.32E+01 at (66,33,3)
       Min divergence: -0.70E+00 at (72,31,10)
       Max VN number:   0.52E+00 at (72,44,17)
       Total Heat Release Rate:           1088.472 kW
       Radiation Loss to Boundaries:      -319.117 kW
 
       Time Step    1900   February  4, 2026  06:38:00
       Step Size:    0.280E-01 s, Total Time:      74.11 s
       Pressure Iterations: 2
       Maximum Velocity Error:  0.25E-01 on Mesh 1 at (72,42,16)
       Maximum Pressure Error:  0.28E+02 on Mesh 1 at (61,33,3)
       ---------------------------------------------------------------
       Max CFL number:  0.84E+00 at (69,40,16)
       Max divergence:  0.45E+01 at (61,33,3)
       Min divergence: -0.94E+00 at (62,34,8)
       Max VN number:   0.70E+00 at (64,31,15)
       Total Heat Release Rate:           1111.829 kW
       Radiation Loss to Boundaries:      -340.150 kW
 
       Time Step    2000   February  4, 2026  06:39:35
       Step Size:    0.255E-01 s, Total Time:      76.95 s
       Pressure Iterations: 1
       Maximum Velocity Error:  0.11E+00 on Mesh 1 at (70,30,9)
       Maximum Pressure Error:  0.30E+02 on Mesh 1 at (70,31,9)
       ---------------------------------------------------------------
       Max CFL number:  0.84E+00 at (69,38,16)
       Max divergence:  0.30E+01 at (72,33,3)
       Min divergence: -0.89E+00 at (72,32,4)
       Max VN number:   0.43E+00 at (72,44,30)
       Total Heat Release Rate:           1170.175 kW
       Radiation Loss to Boundaries:      -350.524 kW
 
       Time Step    2100   February  4, 2026  06:41:08
       Step Size:    0.289E-01 s, Total Time:      79.73 s
       Pressure Iterations: 2
       Maximum Velocity Error:  0.42E-01 on Mesh 1 at (72,30,12)
       Maximum Pressure Error:  0.33E+02 on Mesh 1 at (72,31,11)
       ---------------------------------------------------------------
       Max CFL number:  0.91E+00 at (64,32,11)
       Max divergence:  0.30E+01 at (72,33,3)
       Min divergence: -0.10E+01 at (64,32,11)
       Max VN number:   0.63E+00 at (72,54,18)
       Total Heat Release Rate:           1184.312 kW
       Radiation Loss to Boundaries:      -361.318 kW
 
       Time Step    2200   February  4, 2026  06:42:42
       Step Size:    0.294E-01 s, Total Time:      82.59 s
       Pressure Iterations: 2
       Maximum Velocity Error:  0.36E-01 on Mesh 1 at (56,31,16)
       Maximum Pressure Error:  0.31E+02 on Mesh 1 at (68,31,9)
       ---------------------------------------------------------------
       Max CFL number:  0.92E+00 at (58,31,16)
       Max divergence:  0.37E+01 at (62,33,3)
       Min divergence: -0.13E+01 at (70,31,13)
       Max VN number:   0.70E+00 at (72,33,6)
       Total Heat Release Rate:           1253.560 kW
       Radiation Loss to Boundaries:      -387.356 kW
 
       Time Step    2300   February  4, 2026  06:44:16
       Step Size:    0.273E-01 s, Total Time:      85.23 s
       Pressure Iterations: 2
       Maximum Velocity Error:  0.37E-01 on Mesh 1 at (64,30,13)
       Maximum Pressure Error:  0.10E+03 on Mesh 1 at (59,34,3)
       ---------------------------------------------------------------
       Max CFL number:  0.10E+01 at (64,31,13)
       Max divergence:  0.63E+01 at (64,33,3)
       Min divergence: -0.78E+00 at (72,32,8)
       Max VN number:   0.72E+00 at (72,43,14)
       Total Heat Release Rate:           1320.130 kW
       Radiation Loss to Boundaries:      -399.697 kW
 
       Time Step    2400   February  4, 2026  06:45:50
       Step Size:    0.248E-01 s, Total Time:      87.81 s
       Pressure Iterations: 2
       Maximum Velocity Error:  0.27E-01 on Mesh 1 at (72,44,16)
       Maximum Pressure Error:  0.28E+02 on Mesh 1 at (72,44,16)
       ---------------------------------------------------------------
       Max CFL number:  0.86E+00 at (72,42,16)
       Max divergence:  0.34E+01 at (67,33,3)
       Min divergence: -0.83E+00 at (72,31,8)
       Max VN number:   0.55E+00 at (70,31,15)
       Total Heat Release Rate:           1335.592 kW
       Radiation Loss to Boundaries:      -400.037 kW
 
       Time Step    2500   February  4, 2026  06:47:25
       Step Size:    0.262E-01 s, Total Time:      90.60 s
       Pressure Iterations: 2
       Maximum Velocity Error:  0.79E-01 on Mesh 1 at (63,31,16)
       Maximum Pressure Error:  0.50E+02 on Mesh 1 at (63,31,16)
       ---------------------------------------------------------------
       Max CFL number:  0.97E+00 at (62,31,14)
       Max divergence:  0.42E+01 at (68,33,3)
       Min divergence: -0.77E+00 at (68,31,9)
       Max VN number:   0.78E+00 at (62,31,12)
       Total Heat Release Rate:           1368.638 kW
       Radiation Loss to Boundaries:      -430.092 kW
 
       Time Step    2600   February  4, 2026  06:48:59
       Step Size:    0.283E-01 s, Total Time:      93.32 s
       Pressure Iterations: 2
       Maximum Velocity Error:  0.43E-01 on Mesh 1 at (67,34,2)
       Maximum Pressure Error:  0.11E+03 on Mesh 1 at (67,34,3)
       ---------------------------------------------------------------
       Max CFL number:  0.91E+00 at (51,32,16)
       Max divergence:  0.31E+01 at (72,33,3)
       Min divergence: -0.69E+00 at (57,37,16)
       Max VN number:   0.74E+00 at (72,34,13)
       Total Heat Release Rate:           1393.214 kW
       Radiation Loss to Boundaries:      -456.974 kW
 
       Time Step    2700   February  4, 2026  06:50:33
       Step Size:    0.265E-01 s, Total Time:      96.01 s
       Pressure Iterations: 2
       Maximum Velocity Error:  0.80E-01 on Mesh 1 at (72,31,15)
       Maximum Pressure Error:  0.19E+03 on Mesh 1 at (62,33,3)
       ---------------------------------------------------------------
       Max CFL number:  0.96E+00 at (72,31,14)
       Max divergence:  0.51E+01 at (62,33,3)
       Min divergence: -0.95E+00 at (61,34,11)
       Max VN number:   0.95E+00 at (72,42,20)
       Total Heat Release Rate:           1482.184 kW
       Radiation Loss to Boundaries:      -468.137 kW
 
       Time Step    2800   February  4, 2026  06:52:08
       Step Size:    0.260E-01 s, Total Time:      98.52 s
       Pressure Iterations: 2
       Maximum Velocity Error:  0.37E-01 on Mesh 1 at (71,30,16)
       Maximum Pressure Error:  0.27E+02 on Mesh 1 at (71,31,16)
       ---------------------------------------------------------------
       Max CFL number:  0.84E+00 at (66,38,16)
       Max divergence:  0.37E+01 at (65,33,3)
       Min divergence: -0.10E+01 at (64,33,11)
       Max VN number:   0.47E+00 at (70,31,11)
       Total Heat Release Rate:           1508.341 kW
       Radiation Loss to Boundaries:      -498.511 kW
 
       Time Step    2900   February  4, 2026  06:53:43
       Step Size:    0.240E-01 s, Total Time:     101.13 s
       Pressure Iterations: 2
       Maximum Velocity Error:  0.36E-01 on Mesh 1 at (72,46,18)
       Maximum Pressure Error:  0.62E+02 on Mesh 1 at (67,33,3)
       ---------------------------------------------------------------
       Max CFL number:  0.79E+00 at (65,31,10)
       Max divergence:  0.51E+01 at (68,33,3)
       Min divergence: -0.13E+01 at (60,34,7)
       Max VN number:   0.90E+00 at (72,32,15)
       Total Heat Release Rate:           1545.671 kW
       Radiation Loss to Boundaries:      -505.045 kW
 
       Time Step    3000   February  4, 2026  06:55:17
       Step Size:    0.210E-01 s, Total Time:     103.66 s
       Pressure Iterations: 2
       Maximum Velocity Error:  0.30E-01 on Mesh 1 at (63,34,2)
       Maximum Pressure Error:  0.17E+03 on Mesh 1 at (63,34,3)
       ---------------------------------------------------------------
       Max CFL number:  0.76E+00 at (63,31,14)
       Max divergence:  0.43E+01 at (71,33,3)
       Min divergence: -0.10E+01 at (61,34,6)
       Max VN number:   0.60E+00 at (63,31,15)
       Total Heat Release Rate:           1575.925 kW
       Radiation Loss to Boundaries:      -524.839 kW
 
       Time Step    3100   February  4, 2026  06:56:51
       Step Size:    0.251E-01 s, Total Time:     106.13 s
       Pressure Iterations: 2
       Maximum Velocity Error:  0.29E-01 on Mesh 1 at (72,45,19)
       Maximum Pressure Error:  0.32E+02 on Mesh 1 at (67,31,12)
       ---------------------------------------------------------------
       Max CFL number:  0.89E+00 at (65,31,13)
       Max divergence:  0.35E+01 at (71,33,3)
       Min divergence: -0.94E+00 at (63,34,7)
       Max VN number:   0.57E+00 at (72,49,18)
       Total Heat Release Rate:           1610.612 kW
       Radiation Loss to Boundaries:      -543.381 kW
 
       Time Step    3200   February  4, 2026  06:58:25
       Step Size:    0.255E-01 s, Total Time:     108.66 s
       Pressure Iterations: 2
       Maximum Velocity Error:  0.75E-01 on Mesh 1 at (72,31,16)
       Maximum Pressure Error:  0.64E+02 on Mesh 1 at (72,31,16)
       ---------------------------------------------------------------
       Max CFL number:  0.86E+00 at (72,31,13)
       Max divergence:  0.52E+01 at (62,34,3)
       Min divergence: -0.90E+00 at (63,33,14)
       Max VN number:   0.62E+00 at (72,32,15)
       Total Heat Release Rate:           1614.554 kW
       Radiation Loss to Boundaries:      -534.414 kW
 
       Time Step    3300   February  4, 2026  07:00:00
       Step Size:    0.242E-01 s, Total Time:     111.10 s
       Pressure Iterations: 1
       Maximum Velocity Error:  0.12E+00 on Mesh 1 at (72,31,11)
       Maximum Pressure Error:  0.39E+02 on Mesh 1 at (72,31,11)
       ---------------------------------------------------------------
       Max CFL number:  0.83E+00 at (72,31,13)
       Max divergence:  0.37E+01 at (72,33,3)
       Min divergence: -0.13E+01 at (72,32,13)
       Max VN number:   0.89E+00 at (69,31,15)
       Total Heat Release Rate:           1667.153 kW
       Radiation Loss to Boundaries:      -579.663 kW
 
       Time Step    3400   February  4, 2026  07:01:35
       Step Size:    0.235E-01 s, Total Time:     113.59 s
       Pressure Iterations: 2
       Maximum Velocity Error:  0.48E-01 on Mesh 1 at (70,30,16)
       Maximum Pressure Error:  0.42E+02 on Mesh 1 at (70,31,16)
       ---------------------------------------------------------------
       Max CFL number:  0.86E+00 at (70,31,15)
       Max divergence:  0.37E+01 at (65,33,3)
       Min divergence: -0.72E+00 at (68,32,9)
       Max VN number:   0.61E+00 at (72,39,14)
       Total Heat Release Rate:           1704.286 kW
       Radiation Loss to Boundaries:      -609.087 kW
 
       Time Step    3500   February  4, 2026  07:03:09
       Step Size:    0.248E-01 s, Total Time:     116.02 s
       Pressure Iterations: 2
       Maximum Velocity Error:  0.37E-01 on Mesh 1 at (72,31,13)
       Maximum Pressure Error:  0.90E+02 on Mesh 1 at (65,33,3)
       ---------------------------------------------------------------
       Max CFL number:  0.83E+00 at (63,31,16)
       Max divergence:  0.38E+01 at (67,34,3)
       Min divergence: -0.10E+01 at (68,32,7)
       Max VN number:   0.70E+00 at (61,31,15)
       Total Heat Release Rate:           1760.793 kW
       Radiation Loss to Boundaries:      -635.533 kW
 
       Time Step    3600   February  4, 2026  07:04:43
       Step Size:    0.224E-01 s, Total Time:     118.35 s
       Pressure Iterations: 2
       Maximum Velocity Error:  0.42E-01 on Mesh 1 at (72,32,16)
       Maximum Pressure Error:  0.35E+02 on Mesh 1 at (72,32,16)
       ---------------------------------------------------------------
       Max CFL number:  0.82E+00 at (72,41,16)
       Max divergence:  0.39E+01 at (69,33,3)
       Min divergence: -0.88E+00 at (65,33,10)
       Max VN number:   0.76E+00 at (72,34,15)
       Total Heat Release Rate:           1752.880 kW
       Radiation Loss to Boundaries:      -629.741 kW
 
       Time Step    3700   February  4, 2026  07:06:18
       Step Size:    0.248E-01 s, Total Time:     120.63 s
       Pressure Iterations: 2
       Maximum Velocity Error:  0.52E-01 on Mesh 1 at (72,31,14)
       Maximum Pressure Error:  0.65E+02 on Mesh 1 at (72,32,13)
       ---------------------------------------------------------------
       Max CFL number:  0.90E+00 at (72,32,11)
       Max divergence:  0.39E+01 at (60,34,3)
       Min divergence: -0.11E+01 at (64,33,9)
       Max VN number:   0.69E+00 at (72,32,15)
       Total Heat Release Rate:           1821.894 kW
       Radiation Loss to Boundaries:      -620.341 kW
 
       Time Step    3800   February  4, 2026  07:07:52
       Step Size:    0.225E-01 s, Total Time:     123.02 s
       Pressure Iterations: 2
       Maximum Velocity Error:  0.50E-01 on Mesh 1 at (65,31,16)
       Maximum Pressure Error:  0.52E+02 on Mesh 1 at (65,31,16)
       ---------------------------------------------------------------
       Max CFL number:  0.88E+00 at (65,32,16)
       Max divergence:  0.39E+01 at (68,33,3)
       Min divergence: -0.92E+00 at (72,32,7)
       Max VN number:   0.61E+00 at (63,31,14)
       Total Heat Release Rate:           1847.551 kW
       Radiation Loss to Boundaries:      -688.796 kW
 
       Time Step    3900   February  4, 2026  07:09:26
       Step Size:    0.248E-01 s, Total Time:     125.41 s
       Pressure Iterations: 2
       Maximum Velocity Error:  0.31E-01 on Mesh 1 at (72,43,16)
       Maximum Pressure Error:  0.39E+02 on Mesh 1 at (65,31,9)
       ---------------------------------------------------------------
       Max CFL number:  0.80E+00 at (72,46,17)
       Max divergence:  0.40E+01 at (70,33,3)
       Min divergence: -0.97E+00 at (63,33,10)
       Max VN number:   0.56E+00 at (59,31,13)
       Total Heat Release Rate:           1903.525 kW
       Radiation Loss to Boundaries:      -687.562 kW
 
       Time Step    4000   February  4, 2026  07:11:01
       Step Size:    0.237E-01 s, Total Time:     127.83 s
       Pressure Iterations: 2
       Maximum Velocity Error:  0.59E-01 on Mesh 1 at (67,31,16)
       Maximum Pressure Error:  0.39E+02 on Mesh 1 at (62,32,10)
       ---------------------------------------------------------------
       Max CFL number:  0.88E+00 at (67,33,16)
       Max divergence:  0.39E+01 at (70,33,3)
       Min divergence: -0.88E+00 at (62,33,11)
       Max VN number:   0.76E+00 at (72,32,15)
       Total Heat Release Rate:           1892.724 kW
       Radiation Loss to Boundaries:      -708.006 kW
 
       Time Step    4100   February  4, 2026  07:12:37
       Step Size:    0.249E-01 s, Total Time:     130.11 s
       Pressure Iterations: 2
       Maximum Velocity Error:  0.55E-01 on Mesh 1 at (69,31,16)
       Maximum Pressure Error:  0.73E+02 on Mesh 1 at (72,31,14)
       ---------------------------------------------------------------
       Max CFL number:  0.94E+00 at (69,31,15)
       Max divergence:  0.46E+01 at (68,33,3)
       Min divergence: -0.12E+01 at (63,33,11)
       Max VN number:   0.50E+00 at (69,31,11)
       Total Heat Release Rate:           1954.088 kW
       Radiation Loss to Boundaries:      -714.207 kW
 
       Time Step    4200   February  4, 2026  07:14:13
       Step Size:    0.232E-01 s, Total Time:     132.35 s
       Pressure Iterations: 2
       Maximum Velocity Error:  0.44E-01 on Mesh 1 at (72,30,10)
       Maximum Pressure Error:  0.66E+02 on Mesh 1 at (72,31,10)
       ---------------------------------------------------------------
       Max CFL number:  0.85E+00 at (72,44,17)
       Max divergence:  0.41E+01 at (70,33,3)
       Min divergence: -0.16E+01 at (60,33,9)
       Max VN number:   0.50E+00 at (58,31,13)
       Total Heat Release Rate:           2043.701 kW
       Radiation Loss to Boundaries:      -759.358 kW
 
       Time Step    4300   February  4, 2026  07:15:50
       Step Size:    0.185E-01 s, Total Time:     134.54 s
       Pressure Iterations: 2
       Maximum Velocity Error:  0.36E-01 on Mesh 1 at (62,31,16)
       Maximum Pressure Error:  0.59E+02 on Mesh 1 at (63,31,13)
       ---------------------------------------------------------------
       Max CFL number:  0.76E+00 at (63,31,11)
       Max divergence:  0.41E+01 at (72,33,3)
       Min divergence: -0.84E+00 at (62,31,14)
       Max VN number:   0.75E+00 at (66,31,14)
       Total Heat Release Rate:           2040.837 kW
       Radiation Loss to Boundaries:      -767.695 kW
 
       Time Step    4400   February  4, 2026  07:17:24
       Step Size:    0.244E-01 s, Total Time:     136.88 s
       Pressure Iterations: 2
       Maximum Velocity Error:  0.30E-01 on Mesh 1 at (61,30,15)
       Maximum Pressure Error:  0.69E+02 on Mesh 1 at (68,31,12)
       ---------------------------------------------------------------
       Max CFL number:  0.82E+00 at (61,31,15)
       Max divergence:  0.44E+01 at (64,33,3)
       Min divergence: -0.14E+01 at (60,34,8)
       Max VN number:   0.63E+00 at (72,32,15)
       Total Heat Release Rate:           2038.822 kW
       Radiation Loss to Boundaries:      -780.921 kW
 
       Time Step    4500   February  4, 2026  07:18:58
       Step Size:    0.245E-01 s, Total Time:     139.25 s
       Pressure Iterations: 2
       Maximum Velocity Error:  0.29E-01 on Mesh 1 at (64,30,14)
       Maximum Pressure Error:  0.35E+02 on Mesh 1 at (63,31,10)
       ---------------------------------------------------------------
       Max CFL number:  0.89E+00 at (64,31,10)
       Max divergence:  0.50E+01 at (64,33,3)
       Min divergence: -0.12E+01 at (64,37,16)
       Max VN number:   0.73E+00 at (71,31,12)
       Total Heat Release Rate:           2090.050 kW
       Radiation Loss to Boundaries:      -790.129 kW
 
       Time Step    4600   February  4, 2026  07:20:32
       Step Size:    0.192E-01 s, Total Time:     141.60 s
       Pressure Iterations: 2
       Maximum Velocity Error:  0.49E-01 on Mesh 1 at (63,30,16)
       Maximum Pressure Error:  0.83E+02 on Mesh 1 at (63,31,16)
       ---------------------------------------------------------------
       Max CFL number:  0.83E+00 at (63,31,16)
       Max divergence:  0.41E+01 at (70,33,3)
       Min divergence: -0.10E+01 at (70,32,4)
       Max VN number:   0.38E+00 at (66,31,14)
       Total Heat Release Rate:           2088.614 kW
       Radiation Loss to Boundaries:      -847.269 kW
 
       Time Step    4700   February  4, 2026  07:22:07
       Step Size:    0.234E-01 s, Total Time:     143.88 s
       Pressure Iterations: 2
       Maximum Velocity Error:  0.53E-01 on Mesh 1 at (72,31,12)
       Maximum Pressure Error:  0.90E+02 on Mesh 1 at (72,31,12)
       ---------------------------------------------------------------
       Max CFL number:  0.85E+00 at (72,31,10)
       Max divergence:  0.42E+01 at (68,33,3)
       Min divergence: -0.21E+01 at (60,33,7)
       Max VN number:   0.70E+00 at (66,31,14)
       Total Heat Release Rate:           2209.295 kW
       Radiation Loss to Boundaries:      -859.732 kW
 
       Time Step    4800   February  4, 2026  07:23:42
       Step Size:    0.214E-01 s, Total Time:     146.25 s
       Pressure Iterations: 2
       Maximum Velocity Error:  0.56E-01 on Mesh 1 at (63,31,16)
       Maximum Pressure Error:  0.92E+02 on Mesh 1 at (63,31,16)
       ---------------------------------------------------------------
       Max CFL number:  0.88E+00 at (64,31,9)
       Max divergence:  0.42E+01 at (67,33,3)
       Min divergence: -0.11E+01 at (66,31,6)
       Max VN number:   0.68E+00 at (72,32,11)
       Total Heat Release Rate:           2123.998 kW
       Radiation Loss to Boundaries:      -868.864 kW
 
       Time Step    4900   February  4, 2026  07:25:17
       Step Size:    0.232E-01 s, Total Time:     148.25 s
       Pressure Iterations: 2
       Maximum Velocity Error:  0.39E-01 on Mesh 1 at (64,30,12)
       Maximum Pressure Error:  0.11E+03 on Mesh 1 at (64,31,12)
       ---------------------------------------------------------------
       Max CFL number:  0.90E+00 at (64,31,12)
       Max divergence:  0.48E+01 at (63,33,3)
       Min divergence: -0.16E+01 at (64,32,7)
       Max VN number:   0.61E+00 at (72,67,26)
       Total Heat Release Rate:           2226.189 kW
       Radiation Loss to Boundaries:      -888.861 kW
 
       Time Step    5000   February  4, 2026  07:26:53
       Step Size:    0.237E-01 s, Total Time:     150.27 s
       Pressure Iterations: 2
       Maximum Velocity Error:  0.41E-01 on Mesh 1 at (72,31,13)
       Maximum Pressure Error:  0.68E+02 on Mesh 1 at (72,31,13)
       ---------------------------------------------------------------
       Max CFL number:  0.90E+00 at (65,31,12)
       Max divergence:  0.43E+01 at (69,33,3)
       Min divergence: -0.12E+01 at (61,34,7)
       Max VN number:   0.74E+00 at (72,37,11)
       Total Heat Release Rate:           2294.710 kW
       Radiation Loss to Boundaries:      -893.746 kW
 
       Time Step    5100   February  4, 2026  07:28:28
       Step Size:    0.227E-01 s, Total Time:     152.54 s
       Pressure Iterations: 2
       Maximum Velocity Error:  0.39E-01 on Mesh 1 at (65,30,14)
       Maximum Pressure Error:  0.56E+02 on Mesh 1 at (65,31,14)
       ---------------------------------------------------------------
       Max CFL number:  0.85E+00 at (65,31,13)
       Max divergence:  0.43E+01 at (68,33,3)
       Min divergence: -0.96E+00 at (62,33,9)
       Max VN number:   0.84E+00 at (72,33,15)
       Total Heat Release Rate:           2270.099 kW
       Radiation Loss to Boundaries:      -918.841 kW
 
       Time Step    5200   February  4, 2026  07:30:02
       Step Size:    0.245E-01 s, Total Time:     154.89 s
       Pressure Iterations: 2
       Maximum Velocity Error:  0.33E-01 on Mesh 1 at (64,31,16)
       Maximum Pressure Error:  0.28E+02 on Mesh 1 at (64,31,9)
       ---------------------------------------------------------------
       Max CFL number:  0.82E+00 at (71,31,13)
       Max divergence:  0.57E+01 at (63,34,3)
       Min divergence: -0.15E+01 at (62,33,7)
       Max VN number:   0.81E+00 at (69,31,15)
       Total Heat Release Rate:           2336.444 kW
       Radiation Loss to Boundaries:      -942.418 kW
 
       Time Step    5300   February  4, 2026  07:31:38
       Step Size:    0.214E-01 s, Total Time:     157.04 s
       Pressure Iterations: 2
       Maximum Velocity Error:  0.43E-01 on Mesh 1 at (72,44,16)
       Maximum Pressure Error:  0.85E+02 on Mesh 1 at (63,31,14)
       ---------------------------------------------------------------
       Max CFL number:  0.91E+00 at (72,43,16)
       Max divergence:  0.42E+01 at (68,33,3)
       Min divergence: -0.85E+00 at (61,31,14)
       Max VN number:   0.93E+00 at (71,31,15)
       Total Heat Release Rate:           2267.901 kW
       Radiation Loss to Boundaries:      -983.781 kW
 
       Time Step    5400   February  4, 2026  07:33:13
       Step Size:    0.225E-01 s, Total Time:     159.23 s
       Pressure Iterations: 2
       Maximum Velocity Error:  0.27E-01 on Mesh 1 at (72,34,16)
       Maximum Pressure Error:  0.52E+02 on Mesh 1 at (66,31,13)
       ---------------------------------------------------------------
       Max CFL number:  0.90E+00 at (66,31,11)
       Max divergence:  0.61E+01 at (72,33,3)
       Min divergence: -0.11E+01 at (63,33,11)
       Max VN number:   0.75E+00 at (58,31,15)
       Total Heat Release Rate:           2320.820 kW
       Radiation Loss to Boundaries:      -987.950 kW
 
       Time Step    5500   February  4, 2026  07:34:48
       Step Size:    0.268E-01 s, Total Time:     161.40 s
       Pressure Iterations: 2
       Maximum Velocity Error:  0.56E-01 on Mesh 1 at (72,30,12)
       Maximum Pressure Error:  0.57E+02 on Mesh 1 at (71,31,14)
       ---------------------------------------------------------------
       Max CFL number:  0.93E+00 at (64,31,8)
       Max divergence:  0.56E+01 at (64,33,3)
       Min divergence: -0.11E+01 at (65,31,7)
       Max VN number:   0.48E+00 at (72,33,8)
       Total Heat Release Rate:           2257.349 kW
       Radiation Loss to Boundaries:      -951.560 kW
 
       Time Step    5600   February  4, 2026  07:36:23
       Step Size:    0.219E-01 s, Total Time:     163.77 s
       Pressure Iterations: 2
       Maximum Velocity Error:  0.25E-01 on Mesh 1 at (72,39,16)
       Maximum Pressure Error:  0.56E+02 on Mesh 1 at (63,33,3)
       ---------------------------------------------------------------
       Max CFL number:  0.75E+00 at (72,41,16)
       Max divergence:  0.41E+01 at (70,33,3)
       Min divergence: -0.12E+01 at (62,32,11)
       Max VN number:   0.45E+00 at (72,33,8)
       Total Heat Release Rate:           2236.662 kW
       Radiation Loss to Boundaries:      -983.291 kW
 
       Time Step    5700   February  4, 2026  07:38:00
       Step Size:    0.229E-01 s, Total Time:     165.98 s
       Pressure Iterations: 2
       Maximum Velocity Error:  0.45E-01 on Mesh 1 at (61,31,16)
       Maximum Pressure Error:  0.11E+03 on Mesh 1 at (61,31,15)
       ---------------------------------------------------------------
       Max CFL number:  0.87E+00 at (61,31,15)
       Max divergence:  0.42E+01 at (69,33,3)
       Min divergence: -0.13E+01 at (67,33,13)
       Max VN number:   0.85E+00 at (72,35,13)
       Total Heat Release Rate:           2297.917 kW
       Radiation Loss to Boundaries:      -965.814 kW
 
       Time Step    5800   February  4, 2026  07:39:36
       Step Size:    0.204E-01 s, Total Time:     168.11 s
       Pressure Iterations: 2
       Maximum Velocity Error:  0.22E-01 on Mesh 1 at (61,32,16)
       Maximum Pressure Error:  0.44E+02 on Mesh 1 at (60,32,13)
       ---------------------------------------------------------------
       Max CFL number:  0.81E+00 at (71,31,13)
       Max divergence:  0.42E+01 at (64,33,3)
       Min divergence: -0.12E+01 at (61,32,11)
       Max VN number:   0.97E+00 at (70,31,15)
       Total Heat Release Rate:           2283.273 kW
       Radiation Loss to Boundaries:      -968.759 kW
 
       Time Step    5900   February  4, 2026  07:41:11
       Step Size:    0.229E-01 s, Total Time:     170.12 s
       Pressure Iterations: 2
       Maximum Velocity Error:  0.29E-01 on Mesh 1 at (67,33,16)
       Maximum Pressure Error:  0.37E+02 on Mesh 1 at (66,31,13)
       ---------------------------------------------------------------
       Max CFL number:  0.86E+00 at (66,31,11)
       Max divergence:  0.46E+01 at (62,34,3)
       Min divergence: -0.96E+00 at (63,32,8)
       Max VN number:   0.66E+00 at (71,36,16)
       Total Heat Release Rate:           2282.184 kW
       Radiation Loss to Boundaries:     -1030.662 kW
 
       Time Step    6000   February  4, 2026  07:42:47
       Step Size:    0.226E-01 s, Total Time:     172.36 s
       Pressure Iterations: 2
       Maximum Velocity Error:  0.35E-01 on Mesh 1 at (66,30,16)
       Maximum Pressure Error:  0.66E+02 on Mesh 1 at (67,31,7)
       ---------------------------------------------------------------
       Max CFL number:  0.78E+00 at (67,31,8)
       Max divergence:  0.41E+01 at (65,33,3)
       Min divergence: -0.74E+00 at (62,32,9)
       Max VN number:   0.90E+00 at (69,31,14)
       Total Heat Release Rate:           2229.457 kW
       Radiation Loss to Boundaries:     -1015.211 kW
 
       Time Step    6100   February  4, 2026  07:44:22
       Step Size:    0.236E-01 s, Total Time:     174.63 s
       Pressure Iterations: 2
       Maximum Velocity Error:  0.37E-01 on Mesh 1 at (66,31,16)
       Maximum Pressure Error:  0.33E+02 on Mesh 1 at (64,31,12)
       ---------------------------------------------------------------
       Max CFL number:  0.90E+00 at (71,40,16)
       Max divergence:  0.43E+01 at (72,33,3)
       Min divergence: -0.11E+01 at (62,32,8)
       Max VN number:   0.54E+00 at (72,46,24)
       Total Heat Release Rate:           2304.033 kW
       Radiation Loss to Boundaries:     -1013.874 kW
 
       Time Step    6200   February  4, 2026  07:45:58
       Step Size:    0.210E-01 s, Total Time:     176.87 s
       Pressure Iterations: 2
       Maximum Velocity Error:  0.41E-01 on Mesh 1 at (65,30,16)
       Maximum Pressure Error:  0.51E+02 on Mesh 1 at (65,31,16)
       ---------------------------------------------------------------
       Max CFL number:  0.77E+00 at (63,31,12)
       Max divergence:  0.37E+01 at (64,33,3)
       Min divergence: -0.26E+01 at (60,33,3)
       Max VN number:   0.58E+00 at (58,31,15)
       Total Heat Release Rate:           2236.984 kW
       Radiation Loss to Boundaries:     -1074.325 kW
 
       Time Step    6300   February  4, 2026  07:47:33
       Step Size:    0.256E-01 s, Total Time:     179.14 s
       Pressure Iterations: 2
       Maximum Velocity Error:  0.45E-01 on Mesh 1 at (70,30,16)
       Maximum Pressure Error:  0.11E+03 on Mesh 1 at (63,33,3)
       ---------------------------------------------------------------
       Max CFL number:  0.90E+00 at (61,33,16)
       Max divergence:  0.45E+01 at (58,34,3)
       Min divergence: -0.95E+00 at (70,32,10)
       Max VN number:   0.92E+00 at (65,31,15)
       Total Heat Release Rate:           2260.287 kW
       Radiation Loss to Boundaries:     -1064.064 kW
 
       Time Step    6400   February  4, 2026  07:49:07
       Step Size:    0.252E-01 s, Total Time:     181.56 s
       Pressure Iterations: 1
       Maximum Velocity Error:  0.12E+00 on Mesh 1 at (70,32,16)
       Maximum Pressure Error:  0.38E+02 on Mesh 1 at (62,33,7)
       ---------------------------------------------------------------
       Max CFL number:  0.91E+00 at (69,32,16)
       Max divergence:  0.40E+01 at (64,33,3)
       Min divergence: -0.15E+01 at (61,33,8)
       Max VN number:   0.58E+00 at (72,44,26)
       Total Heat Release Rate:           2220.074 kW
       Radiation Loss to Boundaries:     -1037.951 kW
 
       Time Step    6500   February  4, 2026  07:50:41
       Step Size:    0.210E-01 s, Total Time:     183.92 s
       Pressure Iterations: 2
       Maximum Velocity Error:  0.43E-01 on Mesh 1 at (59,31,16)
       Maximum Pressure Error:  0.53E+02 on Mesh 1 at (68,31,10)
       ---------------------------------------------------------------
       Max CFL number:  0.80E+00 at (71,31,16)
       Max divergence:  0.47E+01 at (61,33,3)
       Min divergence: -0.15E+01 at (68,31,9)
       Max VN number:   0.55E+00 at (72,47,15)
       Total Heat Release Rate:           2293.671 kW
       Radiation Loss to Boundaries:     -1075.088 kW
 
       Time Step    6600   February  4, 2026  07:52:16
       Step Size:    0.208E-01 s, Total Time:     186.24 s
       Pressure Iterations: 2
       Maximum Velocity Error:  0.56E-01 on Mesh 1 at (66,30,16)
       Maximum Pressure Error:  0.83E+02 on Mesh 1 at (66,31,12)
       ---------------------------------------------------------------
       Max CFL number:  0.91E+00 at (66,31,15)
       Max divergence:  0.61E+01 at (64,33,3)
       Min divergence: -0.16E+01 at (69,32,8)
       Max VN number:   0.49E+00 at (57,31,15)
       Total Heat Release Rate:           2327.458 kW
       Radiation Loss to Boundaries:     -1093.156 kW
 
       Time Step    6700   February  4, 2026  07:53:52
       Step Size:    0.201E-01 s, Total Time:     188.54 s
       Pressure Iterations: 1
       Maximum Velocity Error:  0.12E+00 on Mesh 1 at (65,30,10)
       Maximum Pressure Error:  0.53E+02 on Mesh 1 at (64,31,16)
       ---------------------------------------------------------------
       Max CFL number:  0.77E+00 at (65,31,15)
       Max divergence:  0.61E+01 at (71,33,3)
       Min divergence: -0.11E+01 at (64,31,9)
       Max VN number:   0.83E+00 at (69,31,14)
       Total Heat Release Rate:           2334.363 kW
       Radiation Loss to Boundaries:     -1110.770 kW
 
       Time Step    6800   February  4, 2026  07:55:26
       Step Size:    0.222E-01 s, Total Time:     190.71 s
       Pressure Iterations: 2
       Maximum Velocity Error:  0.50E-01 on Mesh 1 at (72,31,14)
       Maximum Pressure Error:  0.99E+02 on Mesh 1 at (72,31,14)
       ---------------------------------------------------------------
       Max CFL number:  0.95E+00 at (72,31,12)
       Max divergence:  0.43E+01 at (68,33,3)
       Min divergence: -0.11E+01 at (64,32,9)
       Max VN number:   0.78E+00 at (69,31,15)
       Total Heat Release Rate:           2241.644 kW
       Radiation Loss to Boundaries:     -1075.059 kW
 
       Time Step    6900   February  4, 2026  07:57:01
       Step Size:    0.243E-01 s, Total Time:     193.05 s
       Pressure Iterations: 2
       Maximum Velocity Error:  0.34E-01 on Mesh 1 at (72,31,12)
       Maximum Pressure Error:  0.40E+02 on Mesh 1 at (69,32,14)
       ---------------------------------------------------------------
       Max CFL number:  0.89E+00 at (69,31,11)
       Max divergence:  0.44E+01 at (61,34,3)
       Min divergence: -0.11E+01 at (63,33,9)
       Max VN number:   0.84E+00 at (66,31,15)
       Total Heat Release Rate:           2232.362 kW
       Radiation Loss to Boundaries:     -1075.098 kW
 
       Time Step    7000   February  4, 2026  07:58:38
       Step Size:    0.166E-01 s, Total Time:     195.37 s
       Pressure Iterations: 1
       Maximum Velocity Error:  0.67E-01 on Mesh 1 at (66,30,11)
       Maximum Pressure Error:  0.31E+02 on Mesh 1 at (71,34,3)
       ---------------------------------------------------------------
       Max CFL number:  0.58E+00 at (61,31,11)
       Max divergence:  0.41E+01 at (66,33,3)
       Min divergence: -0.11E+01 at (69,32,3)
       Max VN number:   0.81E+00 at (68,31,15)
       Total Heat Release Rate:           2283.872 kW
       Radiation Loss to Boundaries:     -1133.669 kW
 
       Time Step    7100   February  4, 2026  08:00:14
       Step Size:    0.238E-01 s, Total Time:     197.55 s
       Pressure Iterations: 2
       Maximum Velocity Error:  0.33E-01 on Mesh 1 at (70,30,9)
       Maximum Pressure Error:  0.44E+02 on Mesh 1 at (70,31,11)
       ---------------------------------------------------------------
       Max CFL number:  0.91E+00 at (70,31,11)
       Max divergence:  0.45E+01 at (64,33,3)
       Min divergence: -0.99E+00 at (62,33,8)
       Max VN number:   0.51E+00 at (72,60,30)
       Total Heat Release Rate:           2354.627 kW
       Radiation Loss to Boundaries:     -1129.267 kW
 
       Time Step    7200   February  4, 2026  08:01:49
       Step Size:    0.213E-01 s, Total Time:     199.82 s
       Pressure Iterations: 2
       Maximum Velocity Error:  0.30E-01 on Mesh 1 at (72,30,10)
       Maximum Pressure Error:  0.59E+02 on Mesh 1 at (72,31,10)
       ---------------------------------------------------------------
       Max CFL number:  0.82E+00 at (57,33,16)
       Max divergence:  0.58E+01 at (64,34,3)
       Min divergence: -0.12E+01 at (64,33,11)
       Max VN number:   0.65E+00 at (57,31,14)
       Total Heat Release Rate:           2335.500 kW
       Radiation Loss to Boundaries:     -1103.563 kW
 
       Time Step    7300   February  4, 2026  08:03:23
       Step Size:    0.206E-01 s, Total Time:     202.14 s
       Pressure Iterations: 1
       Maximum Velocity Error:  0.90E-01 on Mesh 1 at (62,30,11)
       Maximum Pressure Error:  0.45E+02 on Mesh 1 at (69,31,9)
       ---------------------------------------------------------------
       Max CFL number:  0.80E+00 at (62,31,10)
       Max divergence:  0.41E+01 at (66,33,3)
       Min divergence: -0.11E+01 at (60,31,10)
       Max VN number:   0.91E+00 at (61,31,9)
       Total Heat Release Rate:           2244.102 kW
       Radiation Loss to Boundaries:     -1135.305 kW
 
       Time Step    7400   February  4, 2026  08:04:57
       Step Size:    0.227E-01 s, Total Time:     204.44 s
       Pressure Iterations: 2
       Maximum Velocity Error:  0.42E-01 on Mesh 1 at (63,30,16)
       Maximum Pressure Error:  0.47E+02 on Mesh 1 at (63,31,16)
       ---------------------------------------------------------------
       Max CFL number:  0.98E+00 at (66,32,14)
       Max divergence:  0.43E+01 at (64,33,3)
       Min divergence: -0.10E+01 at (70,31,5)
       Max VN number:   0.65E+00 at (62,31,15)
       Total Heat Release Rate:           2277.131 kW
       Radiation Loss to Boundaries:     -1133.533 kW
 
       Time Step    7500   February  4, 2026  08:06:33
       Step Size:    0.224E-01 s, Total Time:     206.77 s
       Pressure Iterations: 1
       Maximum Velocity Error:  0.12E+00 on Mesh 1 at (63,30,10)
       Maximum Pressure Error:  0.35E+02 on Mesh 1 at (61,31,16)
       ---------------------------------------------------------------
       Max CFL number:  0.92E+00 at (71,43,17)
       Max divergence:  0.41E+01 at (68,33,3)
       Min divergence: -0.11E+01 at (61,33,7)
       Max VN number:   0.73E+00 at (66,32,16)
       Total Heat Release Rate:           2233.168 kW
       Radiation Loss to Boundaries:     -1130.769 kW
 
       Time Step    7600   February  4, 2026  08:08:09
       Step Size:    0.241E-01 s, Total Time:     209.07 s
       Pressure Iterations: 2
       Maximum Velocity Error:  0.70E-01 on Mesh 1 at (72,30,14)
       Maximum Pressure Error:  0.99E+02 on Mesh 1 at (72,31,14)
       ---------------------------------------------------------------
       Max CFL number:  0.94E+00 at (72,31,13)
       Max divergence:  0.65E+01 at (62,34,3)
       Min divergence: -0.15E+01 at (72,32,13)
       Max VN number:   0.89E+00 at (71,31,15)
       Total Heat Release Rate:           2318.234 kW
       Radiation Loss to Boundaries:     -1158.944 kW
 
       Time Step    7700   February  4, 2026  08:09:44
       Step Size:    0.271E-01 s, Total Time:     211.61 s
       Pressure Iterations: 2
       Maximum Velocity Error:  0.39E-01 on Mesh 1 at (66,30,16)
       Maximum Pressure Error:  0.47E+02 on Mesh 1 at (66,31,11)
       ---------------------------------------------------------------
       Max CFL number:  0.96E+00 at (66,31,11)
       Max divergence:  0.40E+01 at (71,33,3)
       Min divergence: -0.11E+01 at (60,34,7)
       Max VN number:   0.69E+00 at (72,66,30)
       Total Heat Release Rate:           2251.493 kW
       Radiation Loss to Boundaries:     -1146.382 kW
 
       Time Step    7800   February  4, 2026  08:11:20
       Step Size:    0.237E-01 s, Total Time:     213.94 s
       Pressure Iterations: 2
       Maximum Velocity Error:  0.70E-01 on Mesh 1 at (67,31,16)
       Maximum Pressure Error:  0.81E+02 on Mesh 1 at (72,31,10)
       ---------------------------------------------------------------
       Max CFL number:  0.92E+00 at (67,31,15)
       Max divergence:  0.49E+01 at (60,34,3)
       Min divergence: -0.86E+00 at (67,31,12)
       Max VN number:   0.49E+00 at (72,44,19)
       Total Heat Release Rate:           2325.181 kW
       Radiation Loss to Boundaries:     -1153.584 kW
 
       Time Step    7900   February  4, 2026  08:12:54
       Step Size:    0.226E-01 s, Total Time:     216.36 s
       Pressure Iterations: 2
       Maximum Velocity Error:  0.32E-01 on Mesh 1 at (72,31,16)
       Maximum Pressure Error:  0.45E+02 on Mesh 1 at (72,32,12)
       ---------------------------------------------------------------
       Max CFL number:  0.74E+00 at (72,32,10)
       Max divergence:  0.49E+01 at (61,34,3)
       Min divergence: -0.99E+00 at (63,33,11)
       Max VN number:   0.93E+00 at (71,31,15)
       Total Heat Release Rate:           2270.361 kW
       Radiation Loss to Boundaries:     -1146.831 kW
 
       Time Step    8000   February  4, 2026  08:14:30
       Step Size:    0.212E-01 s, Total Time:     218.63 s
       Pressure Iterations: 2
       Maximum Velocity Error:  0.32E-01 on Mesh 1 at (62,30,12)
       Maximum Pressure Error:  0.69E+02 on Mesh 1 at (62,31,11)
       ---------------------------------------------------------------
       Max CFL number:  0.85E+00 at (71,36,16)
       Max divergence:  0.42E+01 at (67,33,3)
       Min divergence: -0.77E+00 at (63,31,8)
       Max VN number:   0.47E+00 at (72,32,15)
       Total Heat Release Rate:           2241.655 kW
       Radiation Loss to Boundaries:     -1180.379 kW
 
       Time Step    8100   February  4, 2026  08:16:04
       Step Size:    0.228E-01 s, Total Time:     220.89 s
       Pressure Iterations: 2
       Maximum Velocity Error:  0.51E-01 on Mesh 1 at (72,34,16)
       Maximum Pressure Error:  0.66E+02 on Mesh 1 at (67,31,12)
       ---------------------------------------------------------------
       Max CFL number:  0.91E+00 at (67,31,10)
       Max divergence:  0.41E+01 at (69,33,3)
       Min divergence: -0.76E+00 at (68,31,5)
       Max VN number:   0.46E+00 at (72,45,26)
       Total Heat Release Rate:           2266.175 kW
       Radiation Loss to Boundaries:     -1155.670 kW
 
       Time Step    8200   February  4, 2026  08:17:39
       Step Size:    0.262E-01 s, Total Time:     223.24 s
       Pressure Iterations: 2
       Maximum Velocity Error:  0.43E-01 on Mesh 1 at (68,30,15)
       Maximum Pressure Error:  0.61E+02 on Mesh 1 at (72,31,9)
       ---------------------------------------------------------------
       Max CFL number:  0.97E+00 at (68,31,14)
       Max divergence:  0.39E+01 at (67,33,3)
       Min divergence: -0.11E+01 at (72,31,7)
       Max VN number:   0.49E+00 at (65,31,15)
       Total Heat Release Rate:           2249.965 kW
       Radiation Loss to Boundaries:     -1146.672 kW
 
       Time Step    8300   February  4, 2026  08:19:13
       Step Size:    0.226E-01 s, Total Time:     225.74 s
       Pressure Iterations: 2
       Maximum Velocity Error:  0.34E-01 on Mesh 1 at (62,31,16)
       Maximum Pressure Error:  0.71E+02 on Mesh 1 at (63,31,12)
       ---------------------------------------------------------------
       Max CFL number:  0.88E+00 at (63,31,12)
       Max divergence:  0.50E+01 at (67,33,3)
       Min divergence: -0.97E+00 at (72,31,8)
       Max VN number:   0.52E+00 at (72,66,31)
       Total Heat Release Rate:           2327.294 kW
       Radiation Loss to Boundaries:     -1166.607 kW
 
[...]
       Step Size:    0.216E-01 s, Total Time:     230.46 s
       Pressure Iterations: 1
       Maximum Velocity Error:  0.12E+00 on Mesh 1 at (63,30,12)
       Maximum Pressure Error:  0.58E+02 on Mesh 1 at (72,33,5)
       ---------------------------------------------------------------
       Max CFL number:  0.77E+00 at (63,31,10)
       Max divergence:  0.41E+01 at (66,33,3)
       Min divergence: -0.84E+00 at (66,31,4)
       Max VN number:   0.90E+00 at (64,31,15)
       Total Heat Release Rate:           2278.231 kW
       Radiation Loss to Boundaries:     -1178.034 kW
 
       Time Step    8600   February  4, 2026  08:23:56
       Step Size:    0.210E-01 s, Total Time:     232.74 s
       Pressure Iterations: 2
       Maximum Velocity Error:  0.32E-01 on Mesh 1 at (66,36,16)
       Maximum Pressure Error:  0.33E+02 on Mesh 1 at (65,36,16)
       ---------------------------------------------------------------
       Max CFL number:  0.90E+00 at (63,33,16)
       Max divergence:  0.46E+01 at (59,33,3)
       Min divergence: -0.11E+01 at (68,31,7)
       Max VN number:   0.79E+00 at (72,32,15)
       Total Heat Release Rate:           2316.465 kW
       Radiation Loss to Boundaries:     -1211.730 kW
 
       Time Step    8700   February  4, 2026  08:25:32
       Step Size:    0.161E-01 s, Total Time:     235.06 s
       Pressure Iterations: 1
       Maximum Velocity Error:  0.78E-01 on Mesh 1 at (60,33,2)
       Maximum Pressure Error:  0.13E+03 on Mesh 1 at (60,33,3)
       ---------------------------------------------------------------
       Max CFL number:  0.57E+00 at (71,33,16)
       Max divergence:  0.42E+01 at (62,33,3)
       Min divergence: -0.12E+01 at (62,32,9)
       Max VN number:   0.73E+00 at (70,31,15)
       Total Heat Release Rate:           2230.516 kW
       Radiation Loss to Boundaries:     -1204.409 kW
 
       Time Step    8800   February  4, 2026  08:27:06
       Step Size:    0.230E-01 s, Total Time:     237.29 s
       Pressure Iterations: 2
       Maximum Velocity Error:  0.79E-01 on Mesh 1 at (72,30,11)
       Maximum Pressure Error:  0.17E+03 on Mesh 1 at (72,31,11)
       ---------------------------------------------------------------
       Max CFL number:  0.93E+00 at (72,31,9)
       Max divergence:  0.41E+01 at (65,33,3)
       Min divergence: -0.12E+01 at (61,33,9)
       Max VN number:   0.51E+00 at (68,31,14)
       Total Heat Release Rate:           2291.749 kW
       Radiation Loss to Boundaries:     -1213.313 kW
 
       Time Step    8900   February  4, 2026  08:28:41
       Step Size:    0.209E-01 s, Total Time:     239.59 s
       Pressure Iterations: 1
       Maximum Velocity Error:  0.12E+00 on Mesh 1 at (65,30,12)
       Maximum Pressure Error:  0.57E+02 on Mesh 1 at (69,31,7)
       ---------------------------------------------------------------
       Max CFL number:  0.72E+00 at (62,31,10)
       Max divergence:  0.47E+01 at (67,33,3)
       Min divergence: -0.15E+01 at (63,31,5)
       Max VN number:   0.84E+00 at (72,32,15)
       Total Heat Release Rate:           2307.768 kW
       Radiation Loss to Boundaries:     -1180.806 kW
 
       Time Step    9000   February  4, 2026  08:30:14
       Step Size:    0.208E-01 s, Total Time:     241.83 s
       Pressure Iterations: 2
       Maximum Velocity Error:  0.33E-01 on Mesh 1 at (66,30,11)
       Maximum Pressure Error:  0.66E+02 on Mesh 1 at (62,34,10)
       ---------------------------------------------------------------
       Max CFL number:  0.91E+00 at (66,31,13)
       Max divergence:  0.39E+01 at (63,34,3)
       Min divergence: -0.16E+01 at (62,34,9)
       Max VN number:   0.60E+00 at (72,33,13)
       Total Heat Release Rate:           2289.767 kW
       Radiation Loss to Boundaries:     -1198.306 kW
 
       Time Step    9100   February  4, 2026  08:31:49
       Step Size:    0.239E-01 s, Total Time:     244.05 s
       Pressure Iterations: 2
       Maximum Velocity Error:  0.55E-01 on Mesh 1 at (72,31,16)
       Maximum Pressure Error:  0.36E+02 on Mesh 1 at (72,31,16)
       ---------------------------------------------------------------
       Max CFL number:  0.80E+00 at (62,32,14)
       Max divergence:  0.46E+01 at (64,34,3)
       Min divergence: -0.17E+01 at (65,31,6)
       Max VN number:   0.67E+00 at (60,31,12)
       Total Heat Release Rate:           2313.128 kW
       Radiation Loss to Boundaries:     -1247.076 kW
 
       Time Step    9200   February  4, 2026  08:33:22
       Step Size:    0.243E-01 s, Total Time:     246.44 s
       Pressure Iterations: 2
       Maximum Velocity Error:  0.47E-01 on Mesh 1 at (72,30,9)
       Maximum Pressure Error:  0.24E+03 on Mesh 1 at (66,33,3)
       ---------------------------------------------------------------
       Max CFL number:  0.91E+00 at (70,31,11)
       Max divergence:  0.45E+01 at (63,34,3)
       Min divergence: -0.10E+01 at (63,34,9)
       Max VN number:   0.91E+00 at (72,32,15)
       Total Heat Release Rate:           2299.081 kW
       Radiation Loss to Boundaries:     -1201.253 kW
 
       Time Step    9300   February  4, 2026  08:34:58
       Step Size:    0.204E-01 s, Total Time:     248.76 s
       Pressure Iterations: 2
       Maximum Velocity Error:  0.61E-01 on Mesh 1 at (61,30,16)
       Maximum Pressure Error:  0.52E+02 on Mesh 1 at (61,31,16)
       ---------------------------------------------------------------
       Max CFL number:  0.86E+00 at (62,31,14)
       Max divergence:  0.40E+01 at (68,33,3)
       Min divergence: -0.13E+01 at (66,32,3)
       Max VN number:   0.49E+00 at (65,31,15)
       Total Heat Release Rate:           2235.534 kW
       Radiation Loss to Boundaries:     -1221.035 kW
 
       Time Step    9400   February  4, 2026  08:36:32
       Step Size:    0.250E-01 s, Total Time:     251.06 s
       Pressure Iterations: 2
       Maximum Velocity Error:  0.35E-01 on Mesh 1 at (62,30,16)
       Maximum Pressure Error:  0.29E+02 on Mesh 1 at (67,31,8)
       ---------------------------------------------------------------
       Max CFL number:  0.85E+00 at (63,31,12)
       Max divergence:  0.41E+01 at (60,33,3)
       Min divergence: -0.68E+00 at (64,37,16)
       Max VN number:   0.76E+00 at (48,35,16)
       Total Heat Release Rate:           2232.017 kW
       Radiation Loss to Boundaries:     -1227.564 kW
 
       Time Step    9500   February  4, 2026  08:38:07
       Step Size:    0.206E-01 s, Total Time:     253.49 s
       Pressure Iterations: 2
       Maximum Velocity Error:  0.36E-01 on Mesh 1 at (63,34,2)
       Maximum Pressure Error:  0.20E+03 on Mesh 1 at (63,34,3)
       ---------------------------------------------------------------
       Max CFL number:  0.78E+00 at (64,31,12)
       Max divergence:  0.42E+01 at (67,33,3)
       Min divergence: -0.82E+00 at (62,33,7)
       Max VN number:   0.89E+00 at (62,31,15)
       Total Heat Release Rate:           2303.447 kW
       Radiation Loss to Boundaries:     -1244.918 kW
 
       Time Step    9600   February  4, 2026  08:39:43
       Step Size:    0.258E-01 s, Total Time:     255.81 s
       Pressure Iterations: 2
       Maximum Velocity Error:  0.26E-01 on Mesh 1 at (62,30,13)
       Maximum Pressure Error:  0.37E+02 on Mesh 1 at (62,31,12)
       ---------------------------------------------------------------
       Max CFL number:  0.92E+00 at (62,31,14)
       Max divergence:  0.45E+01 at (62,33,3)
       Min divergence: -0.11E+01 at (68,32,10)
       Max VN number:   0.57E+00 at (72,32,13)
       Total Heat Release Rate:           2225.650 kW
       Radiation Loss to Boundaries:     -1205.186 kW
 
       Time Step    9700   February  4, 2026  08:41:17
       Step Size:    0.227E-01 s, Total Time:     258.20 s
       Pressure Iterations: 2
       Maximum Velocity Error:  0.50E-01 on Mesh 1 at (72,30,11)
       Maximum Pressure Error:  0.81E+02 on Mesh 1 at (61,33,3)
       ---------------------------------------------------------------
       Max CFL number:  0.82E+00 at (72,31,12)
       Max divergence:  0.43E+01 at (67,33,3)
       Min divergence: -0.94E+00 at (62,34,7)
       Max VN number:   0.66E+00 at (69,31,15)
       Total Heat Release Rate:           2256.710 kW
       Radiation Loss to Boundaries:     -1191.675 kW
 
       Time Step    9800   February  4, 2026  08:42:51
       Step Size:    0.245E-01 s, Total Time:     260.71 s
       Pressure Iterations: 2
       Maximum Velocity Error:  0.31E-01 on Mesh 1 at (67,36,16)
       Maximum Pressure Error:  0.12E+03 on Mesh 1 at (64,32,3)
       ---------------------------------------------------------------
       Max CFL number:  0.81E+00 at (65,31,11)
       Max divergence:  0.59E+01 at (60,34,3)
       Min divergence: -0.10E+01 at (62,33,7)
       Max VN number:   0.68E+00 at (59,31,14)
       Total Heat Release Rate:           2347.553 kW
       Radiation Loss to Boundaries:     -1264.142 kW
 
       Time Step    9900   February  4, 2026  08:44:25
       Step Size:    0.210E-01 s, Total Time:     263.16 s
       Pressure Iterations: 2
       Maximum Velocity Error:  0.34E-01 on Mesh 1 at (64,30,11)
       Maximum Pressure Error:  0.98E+02 on Mesh 1 at (64,31,11)
       ---------------------------------------------------------------
       Max CFL number:  0.83E+00 at (67,31,13)
       Max divergence:  0.48E+01 at (65,34,3)
       Min divergence: -0.83E+00 at (62,33,12)
       Max VN number:   0.63E+00 at (64,31,15)
       Total Heat Release Rate:           2292.196 kW
       Radiation Loss to Boundaries:     -1221.331 kW
 
       Time Step   10000   February  4, 2026  08:45:59
       Step Size:    0.219E-01 s, Total Time:     265.51 s
       Pressure Iterations: 1
       Maximum Velocity Error:  0.11E+00 on Mesh 1 at (51,33,16)
       Maximum Pressure Error:  0.43E+02 on Mesh 1 at (63,31,9)
       ---------------------------------------------------------------
       Max CFL number:  0.72E+00 at (72,31,16)
       Max divergence:  0.47E+01 at (67,33,3)
       Min divergence: -0.11E+01 at (63,31,9)
       Max VN number:   0.88E+00 at (72,32,15)
       Total Heat Release Rate:           2333.654 kW
       Radiation Loss to Boundaries:     -1237.256 kW
 
       Time Step   10100   February  4, 2026  08:47:35
       Step Size:    0.253E-01 s, Total Time:     267.91 s
       Pressure Iterations: 2
       Maximum Velocity Error:  0.38E-01 on Mesh 1 at (63,30,14)
       Maximum Pressure Error:  0.49E+02 on Mesh 1 at (72,32,9)
       ---------------------------------------------------------------
       Max CFL number:  0.98E+00 at (63,31,13)
       Max divergence:  0.41E+01 at (70,33,3)
       Min divergence: -0.12E+01 at (61,34,6)
       Max VN number:   0.58E+00 at (72,32,15)
       Total Heat Release Rate:           2293.714 kW
       Radiation Loss to Boundaries:     -1271.140 kW
 
       Time Step   10200   February  4, 2026  08:49:12
       Step Size:    0.225E-01 s, Total Time:     270.22 s
       Pressure Iterations: 2
       Maximum Velocity Error:  0.37E-01 on Mesh 1 at (72,30,16)
       Maximum Pressure Error:  0.52E+02 on Mesh 1 at (70,31,13)
       ---------------------------------------------------------------
       Max CFL number:  0.89E+00 at (70,31,11)
       Max divergence:  0.41E+01 at (71,33,3)
       Min divergence: -0.78E+00 at (69,32,3)
       Max VN number:   0.65E+00 at (72,32,14)
       Total Heat Release Rate:           2208.523 kW
       Radiation Loss to Boundaries:     -1236.333 kW
 
       Time Step   10300   February  4, 2026  08:50:48
       Step Size:    0.205E-01 s, Total Time:     272.43 s
       Pressure Iterations: 2
       Maximum Velocity Error:  0.50E-01 on Mesh 1 at (72,31,9)
       Maximum Pressure Error:  0.85E+02 on Mesh 1 at (72,31,9)
       ---------------------------------------------------------------
       Max CFL number:  0.89E+00 at (72,31,10)
       Max divergence:  0.41E+01 at (66,33,3)
       Min divergence: -0.91E+00 at (62,32,9)
       Max VN number:   0.52E+00 at (72,33,13)
       Total Heat Release Rate:           2244.246 kW
       Radiation Loss to Boundaries:     -1218.574 kW
 
       Time Step   10400   February  4, 2026  08:52:22
       Step Size:    0.253E-01 s, Total Time:     274.74 s
       Pressure Iterations: 2
       Maximum Velocity Error:  0.39E-01 on Mesh 1 at (72,56,25)
       Maximum Pressure Error:  0.51E+02 on Mesh 1 at (62,31,9)
       ---------------------------------------------------------------
       Max CFL number:  0.84E+00 at (72,54,25)
       Max divergence:  0.37E+01 at (70,33,3)
       Min divergence: -0.91E+00 at (61,32,13)
       Max VN number:   0.62E+00 at (60,31,15)
       Total Heat Release Rate:           2238.352 kW
       Radiation Loss to Boundaries:     -1187.267 kW
 
       Time Step   10500   February  4, 2026  08:53:57
       Step Size:    0.276E-01 s, Total Time:     277.10 s
       Pressure Iterations: 2
       Maximum Velocity Error:  0.57E-01 on Mesh 1 at (72,31,10)
       Maximum Pressure Error:  0.79E+02 on Mesh 1 at (72,31,10)
       ---------------------------------------------------------------
       Max CFL number:  0.98E+00 at (72,31,8)
       Max divergence:  0.39E+01 at (71,33,3)
       Min divergence: -0.10E+01 at (70,31,13)
       Max VN number:   0.86E+00 at (51,33,16)
       Total Heat Release Rate:           2239.344 kW
       Radiation Loss to Boundaries:     -1197.479 kW
 
       Time Step   10600   February  4, 2026  08:55:32
       Step Size:    0.211E-01 s, Total Time:     279.49 s
       Pressure Iterations: 2
       Maximum Velocity Error:  0.52E-01 on Mesh 1 at (72,31,13)
       Maximum Pressure Error:  0.44E+02 on Mesh 1 at (72,31,13)
       ---------------------------------------------------------------
       Max CFL number:  0.83E+00 at (72,31,13)
       Max divergence:  0.42E+01 at (63,33,3)
       Min divergence: -0.79E+00 at (65,32,8)
       Max VN number:   0.61E+00 at (57,31,13)
       Total Heat Release Rate:           2294.454 kW
       Radiation Loss to Boundaries:     -1280.813 kW
 
       Time Step   10700   February  4, 2026  08:57:07
       Step Size:    0.221E-01 s, Total Time:     281.79 s
       Pressure Iterations: 2
       Maximum Velocity Error:  0.56E-01 on Mesh 1 at (63,31,16)
       Maximum Pressure Error:  0.73E+02 on Mesh 1 at (63,31,16)
       ---------------------------------------------------------------
       Max CFL number:  0.80E+00 at (64,31,14)
       Max divergence:  0.44E+01 at (65,34,3)
       Min divergence: -0.14E+01 at (63,33,11)
       Max VN number:   0.88E+00 at (72,32,15)
       Total Heat Release Rate:           2252.764 kW
       Radiation Loss to Boundaries:     -1248.840 kW
 
       Time Step   10800   February  4, 2026  08:58:42
       Step Size:    0.246E-01 s, Total Time:     284.14 s
       Pressure Iterations: 2
       Maximum Velocity Error:  0.50E-01 on Mesh 1 at (72,31,12)
       Maximum Pressure Error:  0.67E+02 on Mesh 1 at (72,31,10)
       ---------------------------------------------------------------
       Max CFL number:  0.91E+00 at (72,49,14)
       Max divergence:  0.57E+01 at (63,33,3)
       Min divergence: -0.99E+00 at (72,33,9)
       Max VN number:   0.60E+00 at (72,32,14)
       Total Heat Release Rate:           2312.034 kW
       Radiation Loss to Boundaries:     -1258.113 kW
 
       Time Step   10900   February  4, 2026  09:00:17
       Step Size:    0.247E-01 s, Total Time:     286.41 s
       Pressure Iterations: 2
       Maximum Velocity Error:  0.60E-01 on Mesh 1 at (63,30,16)
       Maximum Pressure Error:  0.58E+02 on Mesh 1 at (63,31,14)
       ---------------------------------------------------------------
       Max CFL number:  0.90E+00 at (63,31,16)
       Max divergence:  0.43E+01 at (63,34,3)
       Min divergence: -0.11E+01 at (61,34,6)
       Max VN number:   0.95E+00 at (62,31,13)
       Total Heat Release Rate:           2297.450 kW
       Radiation Loss to Boundaries:     -1259.167 kW
 
       Time Step   11000   February  4, 2026  09:01:53
       Step Size:    0.228E-01 s, Total Time:     288.72 s
       Pressure Iterations: 2
       Maximum Velocity Error:  0.23E-01 on Mesh 1 at (59,33,2)
       Maximum Pressure Error:  0.17E+03 on Mesh 1 at (59,33,3)
       ---------------------------------------------------------------
       Max CFL number:  0.84E+00 at (62,32,13)
       Max divergence:  0.63E+01 at (64,33,3)
       Min divergence: -0.11E+01 at (72,32,3)
       Max VN number:   0.48E+00 at (72,67,31)
       Total Heat Release Rate:           2307.403 kW
       Radiation Loss to Boundaries:     -1280.516 kW
 
       Time Step   11100   February  4, 2026  09:03:29
       Step Size:    0.240E-01 s, Total Time:     291.30 s
       Pressure Iterations: 2
       Maximum Velocity Error:  0.48E-01 on Mesh 1 at (65,30,16)
       Maximum Pressure Error:  0.47E+02 on Mesh 1 at (64,31,14)
       ---------------------------------------------------------------
       Max CFL number:  0.91E+00 at (65,31,14)
       Max divergence:  0.53E+01 at (63,33,3)
       Min divergence: -0.83E+00 at (68,31,7)
       Max VN number:   0.49E+00 at (61,31,13)
       Total Heat Release Rate:           2309.487 kW
       Radiation Loss to Boundaries:     -1229.941 kW
 
       Time Step   11200   February  4, 2026  09:05:03
       Step Size:    0.206E-01 s, Total Time:     293.69 s
       Pressure Iterations: 2
       Maximum Velocity Error:  0.29E-01 on Mesh 1 at (62,31,16)
       Maximum Pressure Error:  0.42E+02 on Mesh 1 at (63,31,12)
       ---------------------------------------------------------------
       Max CFL number:  0.86E+00 at (62,31,15)
       Max divergence:  0.41E+01 at (62,34,3)
       Min divergence: -0.80E+00 at (69,32,3)
       Max VN number:   0.98E+00 at (61,31,14)
       Total Heat Release Rate:           2311.736 kW
       Radiation Loss to Boundaries:     -1292.076 kW
 
       Time Step   11300   February  4, 2026  09:06:38
       Step Size:    0.216E-01 s, Total Time:     295.91 s
       Pressure Iterations: 2
       Maximum Velocity Error:  0.66E-01 on Mesh 1 at (59,31,16)
       Maximum Pressure Error:  0.91E+02 on Mesh 1 at (59,31,16)
       ---------------------------------------------------------------
       Max CFL number:  0.84E+00 at (61,31,14)
       Max divergence:  0.52E+01 at (63,34,3)
       Min divergence: -0.12E+01 at (58,31,14)
       Max VN number:   0.73E+00 at (72,32,15)
       Total Heat Release Rate:           2357.077 kW
       Radiation Loss to Boundaries:     -1301.084 kW
 
       Time Step   11400   February  4, 2026  09:08:11
       Step Size:    0.233E-01 s, Total Time:     298.26 s
       Pressure Iterations: 2
       Maximum Velocity Error:  0.67E-01 on Mesh 1 at (67,31,16)
       Maximum Pressure Error:  0.17E+03 on Mesh 1 at (67,33,3)
       ---------------------------------------------------------------
       Max CFL number:  0.95E+00 at (67,31,15)
       Max divergence:  0.57E+01 at (67,33,3)
       Min divergence: -0.13E+01 at (64,33,8)
       Max VN number:   0.81E+00 at (66,31,14)
       Total Heat Release Rate:           2356.522 kW
       Radiation Loss to Boundaries:     -1277.524 kW
 
       Time Step   11472   February  4, 2026  09:09:20
       Step Size:    0.367E-02 s, Total Time:     300.00 s
       Pressure Iterations: 5
       Maximum Velocity Error:  0.29E-01 on Mesh 1 at (63,32,2)
       Maximum Pressure Error:  0.26E+03 on Mesh 1 at (66,31,3)
       ---------------------------------------------------------------
       Max CFL number:  0.12E+00 at (72,43,17)
       Max divergence:  0.42E+01 at (67,33,3)
       Min divergence: -0.94E+00 at (72,32,10)
       Max VN number:   0.12E+00 at (63,31,11)
       Total Heat Release Rate:           2502.408 kW
       Radiation Loss to Boundaries:     -1283.627 kW
 


 Time Stepping Wall Clock Time (s):    10857.621
 Total Elapsed Wall Clock Time (s):    10868.990

STOP: FDS completed successfully (CHID: Michael_Medium_025_002SY)
