
 Fire Dynamics Simulator

 Current Date     : February  4, 2026  05:39:01
 Revision         : FDS-6.8.0-0-g886e009-release
 Revision Date    : Tue Apr 18 07:06:40 2023 -0400
 Compiler         : Intel ifort 2021.7.0
 Compilation Date : Tue 04/18/2023  03:28 PM

 MPI Enabled;    Number of MPI Processes:       1
 OpenMP Enabled; Number of OpenMP Threads:      4

 MPI version: 3.1
 MPI library version: Intel(R) MPI Library 2021.6 for Windows* OS


 Job TITLE        : Formative Assignment 1  Atrium Spill Plume, Fast t2 Fire
 Job ID string    : Michael Fast 0.5m 0.02SY


 Grid Dimensions, Mesh     1

   Cells in the X Direction            42
   Cells in the Y Direction            38
   Cells in the Z Direction            22
   Number of Grid Cells             35112


 Physical Dimensions, Mesh     1

   Length (m)                      21.000
   Width  (m)                      19.000
   Height (m)                      11.000
   Initial Time Step (s)            0.241

 Total Number of Grid Cells         35112


 Maximum Cell Aspect Ratio          1.000
 CFL Velocity Norm                      2


 Miscellaneous Parameters

   Simulation Start Time (s)          0.0
   Simulation End Time (s)          300.0
   Background Pressure (Pa)     101325.00
   Ambient Temperature (C)          20.00

   3D Cartesian
   VLES Calculation
   Eddy Viscosity Model:  Deardorff (C_DEARDORFF = 0.10)
   Surface INERT Eddy Viscosity Model:  WALE (C_WALE = 0.60)
   Surface FIRE Eddy Viscosity Model:  WALE (C_WALE = 0.60)
   Surface LEAK Eddy Viscosity Model:  WALE (C_WALE = 0.60)
   Turbulent Prandtl Number:         0.50
   Turbulent Schmidt Number:         0.50


 Pressure solver information

   Solver:                            FFT
   Velocity tolerance (m/s):    2.500E-01
   Press eqn res tol (1/s^2):   8.000E+01
   Max pressure iterations:            10


 Background Stratification

      Z (m)     P_0 (Pa)    TMP_0 (C)
   ------------------------------------
       10.75    101199.06     20.00
       10.25    101204.90     20.00
        9.75    101210.75     20.00
        9.25    101216.60     20.00
        8.75    101222.47     20.00
        8.25    101228.32     20.00
        7.75    101234.17     20.00
        7.25    101240.04     20.00
        6.75    101245.89     20.00
        6.25    101251.74     20.00
        5.75    101257.59     20.00
        5.25    101263.46     20.00
        4.75    101269.32     20.00
        4.25    101275.17     20.00
        3.75    101281.02     20.00
        3.25    101286.89     20.00
        2.75    101292.75     20.00
        2.25    101298.60     20.00
        1.75    101304.48     20.00
        1.25    101310.33     20.00
        0.75    101316.18     20.00
        0.25    101322.03     20.00


 Mass Fraction Transformation Matrix to Convert Species Mixtures (Columns) to Primitive Species (Rows)

                         AIR       PROPANE   PRODUCTS
   NITROGEN              0.762470  0.000000  0.716194
   OXYGEN                0.230997  0.000000  0.000000
   CARBON DIOXIDE        0.000591  0.000000  0.177828
   WATER VAPOR           0.005941  0.000000  0.104764
   CARBON MONOXIDE       0.000000  0.000000  0.000000
   SOOT                  0.000000  0.000000  0.001214
   HYDROGEN              0.000000  0.000000  0.000000
   HYDROGEN CYANIDE      0.000000  0.000000  0.000000
   PROPANE               0.000000  1.000000  0.000000


 Primitive Species Information

   NITROGEN
   Gas Species
   Molecular Weight (g/mol)                28.01340
   Ambient Density (kg/m^3)                1.165
           Enthalpy of Formation (J/kg)  0.000E+00

   OXYGEN
   Gas Species
   Molecular Weight (g/mol)                31.99880
   Ambient Density (kg/m^3)                1.330
           Enthalpy of Formation (J/kg)  0.000E+00

   CARBON DIOXIDE
   Gas Species
   Molecular Weight (g/mol)                44.00950
   Ambient Density (kg/m^3)                1.830
           Enthalpy of Formation (J/kg) -8.941E+06

   WATER VAPOR
   Gas Species
   Molecular Weight (g/mol)                18.01528
   Ambient Density (kg/m^3)                0.749
           Enthalpy of Formation (J/kg) -1.342E+07

   CARBON MONOXIDE
   Gas Species
   Molecular Weight (g/mol)                28.01010
   Ambient Density (kg/m^3)                1.164
           Enthalpy of Formation (J/kg) -3.946E+06

   SOOT
   Gas Species
   Molecular Weight (g/mol)                12.01070
   Ambient Density (kg/m^3)                0.499
           Enthalpy of Formation (J/kg)  0.000E+00

   HYDROGEN
   Gas Species
   Molecular Weight (g/mol)                 2.01588
   Ambient Density (kg/m^3)                0.084
           Enthalpy of Formation (J/kg)  0.000E+00

   HYDROGEN CYANIDE
   Gas Species
   Molecular Weight (g/mol)                27.02534
   Ambient Density (kg/m^3)                1.123
           Enthalpy of Formation (J/kg)  4.924E+06

   PROPANE
   Gas Species
   Molecular Weight (g/mol)                44.09562
   Ambient Density (kg/m^3)                1.833
           Enthalpy of Formation (J/kg) -2.374E+06


 Tracked (Lumped) Species Information

   AIR
   Molecular Weight (g/mol)            28.75198
   Ambient Density (kg/m^3)            1.195
   Initial Mass Fraction               1.000
   Enthalpy of Formation (J/kg)     -8.504E+04

   Sub Species                    Mass Fraction     Mole Fraction
   NITROGEN                       7.624699E-01      7.825727E-01
   OXYGEN                         2.309974E-01      2.075588E-01
   CARBON DIOXIDE                 5.914650E-04      3.864118E-04
   WATER VAPOR                    5.941209E-03      9.482037E-03
 
     Viscosity (kg/m/s) Ambient,  293 K:  1.796E-05
                                  500 K:  2.612E-05
                                 1000 K:  4.125E-05
                                 1500 K:  5.371E-05
                                 2000 K:  6.476E-05
   Therm. Cond. (W/m/K) Ambient,  293 K:  2.556E-02
                                  500 K:  3.814E-02
                                 1000 K:  6.686E-02
                                 1500 K:  9.249E-02
                                 2000 K:  1.153E-01
        Enthalpy (J/kg) Ambient,  293 K: -9.012E+04
                                  500 K:  1.222E+05
                                 1000 K:  6.721E+05
                                 1500 K:  1.270E+06
                                 2000 K:  1.896E+06
    Spec. Heat (J/kg/K) Ambient,  293 K:  1.016E+03
                                  500 K:  1.042E+03
                                 1000 K:  1.156E+03
                                 1500 K:  1.229E+03
                                 2000 K:  1.270E+03
   Diff. Coeff. (m^2/s) Ambient,  293 K:  1.991E-05
                                  500 K:  4.961E-05
                                 1000 K:  1.580E-04
                                 1500 K:  3.095E-04
                                 2000 K:  4.984E-04
 Gibbs Energy Amb. (kJ/mol),  293 K: -5.873E+01
                                  500 K: -1.007E+02
                                 1000 K: -2.117E+02
                                 1500 K: -3.312E+02
                                 2000 K: -4.568E+02

   PROPANE
   Molecular Weight (g/mol)            44.09562
   Ambient Density (kg/m^3)            1.833
   Initial Mass Fraction               0.000
   Enthalpy of Formation (J/kg)     -2.374E+06

   Sub Species                    Mass Fraction     Mole Fraction
   PROPANE                        1.000000E+00      1.000000E+00
 
     Viscosity (kg/m/s) Ambient,  293 K:  8.079E-06
                                  500 K:  1.310E-05
                                 1000 K:  2.234E-05
                                 1500 K:  2.955E-05
                                 2000 K:  3.574E-05
   Therm. Cond. (W/m/K) Ambient,  293 K:  1.821E-02
                                  500 K:  4.581E-02
                                 1000 K:  1.212E-01
                                 1500 K:  1.890E-01
                                 2000 K:  2.465E-01
        Enthalpy (J/kg) Ambient,  293 K: -2.382E+06
                                  500 K: -1.946E+06
                                 1000 K: -2.769E+05
                                 1500 K:  1.900E+06
                                 2000 K:  4.336E+06
    Spec. Heat (J/kg/K) Ambient,  293 K:  1.646E+03
                                  500 K:  2.553E+03
                                 1000 K:  3.960E+03
                                 1500 K:  4.669E+03
                                 2000 K:  5.034E+03
   Diff. Coeff. (m^2/s) Ambient,  293 K:  1.110E-05
                                  500 K:  2.862E-05
                                 1000 K:  9.316E-05
                                 1500 K:  1.833E-04
                                 2000 K:  2.954E-04
 Gibbs Energy Amb. (kJ/mol),  293 K: -1.839E+02
                                  500 K: -2.447E+02
                                 1000 K: -4.295E+02
                                 1500 K: -6.584E+02
                                 2000 K: -9.217E+02

   PRODUCTS
   Molecular Weight (g/mol)            28.15067
   Ambient Density (kg/m^3)            1.170
   Initial Mass Fraction               0.000
   Enthalpy of Formation (J/kg)     -2.996E+06

   Sub Species                    Mass Fraction     Mole Fraction
   NITROGEN                       7.161941E-01      7.197034E-01
   CARBON DIOXIDE                 1.778284E-01      1.137479E-01
   WATER VAPOR                    1.047637E-01      1.637037E-01
   CARBON MONOXIDE                0.000000E+00      0.000000E+00
   SOOT                           1.213841E-03      2.845000E-03
   HYDROGEN CYANIDE               0.000000E+00      0.000000E+00
 
     Viscosity (kg/m/s) Ambient,  293 K:  1.612E-05
                                  500 K:  2.389E-05
                                 1000 K:  3.893E-05
                                 1500 K:  5.143E-05
                                 2000 K:  6.244E-05
   Therm. Cond. (W/m/K) Ambient,  293 K:  2.340E-02
                                  500 K:  3.617E-02
                                 1000 K:  6.711E-02
                                 1500 K:  9.629E-02
                                 2000 K:  1.225E-01
        Enthalpy (J/kg) Ambient,  293 K: -3.002E+06
                                  500 K: -2.771E+06
                                 1000 K: -2.160E+06
                                 1500 K: -1.482E+06
                                 2000 K: -7.633E+05
    Spec. Heat (J/kg/K) Ambient,  293 K:  1.090E+03
                                  500 K:  1.143E+03
                                 1000 K:  1.298E+03
                                 1500 K:  1.404E+03
                                 2000 K:  1.467E+03
   Diff. Coeff. (m^2/s) Ambient,  293 K:  1.952E-05
                                  500 K:  4.957E-05
                                 1000 K:  1.601E-04
                                 1500 K:  3.148E-04
                                 2000 K:  5.078E-04
 Gibbs Energy Amb. (kJ/mol),  293 K: -1.525E+02
                                  500 K: -1.946E+02
                                 1000 K: -3.070E+02
                                 1500 K: -4.290E+02
                                 2000 K: -5.578E+02


 Gas Phase Reaction Information

      Fuel                                           Heat of Combustion (kJ/kg)
      PROPANE                                                        45679.3589

      Primitive Species Stoich. Coeff.
      Species ID                                                          Molar
      NITROGEN                                                         0.000000
      OXYGEN                                                          -4.926573
      CARBON DIOXIDE                                                   2.926573
      WATER VAPOR                                                      4.000000
      SOOT                                                             0.073427
      PROPANE                                                         -1.000000

      Tracked (Lumped) Species Stoich. Coeff.
      Species ID                                             Molar         Mass
      AIR                                               -23.735791   -15.476618
      PROPANE                                            -1.000000    -1.000000
      PRODUCTS                                           25.809218    16.476618

      Reaction Kinetics

      Fast chemistry

      ODE Solver:  EXPLICIT EULER

      Extinction Model:  EXTINCTION 1
      Auto-Ignition Temperature (C):            -273.1
      Critical Flame Temperature (C):           1447.0

      Prescribed Radiative Fraction:             0.290


 Material Information


 Surface Conditions

   0 INERT (DEFAULT)

   1 FIRE
     HRR Per Unit Area (kW/m2)       1200.0
     PROPANE Mass Flux (kg/s/m2)   2.627E-02

   2 LEAK
     Normal Velocity (m/s)        -0.050
     AIR Mass Fraction         1.000

   3 OPEN
     Passive Vent to Atmosphere

   4 MIRROR
     Symmetry Plane

   5 INTERPOLATED

   6 PERIODIC

   7 HVAC

   8 MASSLESS TRACER

   9 DROPLET

  10 MASSLESS TARGET

  11 PERIODIC FLOW ONLY


 Lagrangian Particle Classes


 Cut-off Density and Temperature

    Minimum Temperature:  -259.1 C
    Maximum Temperature:  2726.8 C
    Minimum Density:  1.195E-01 kg/m3
    Maximum Density:  7.677E+01 kg/m3


 Device Information

   1 ID: DOOR_TEMP
     QUANTITY: TEMPERATURE
     Coordinates (X,Y,Z):    7.500000E+00    7.000000E+00    6.500000E+00
     TEMPORAL STATISTIC: TIME AVERAGE
   2 ID: DOOR_VIS
     QUANTITY: VISIBILITY
     Species ID: SOOT
     Coordinates (X,Y,Z):    7.500000E+00    7.000000E+00    6.500000E+00
     TEMPORAL STATISTIC: TIME AVERAGE
   3 ID: LAYER_HEIGHT_DOOR
     QUANTITY: LAYER HEIGHT
     Coordinates (X,Y,Z):    7.250000E+00    7.250000E+00    6.250000E+00
     TEMPORAL STATISTIC: TIME AVERAGE


 Slice File Information, Mesh     1

   1 Nodes:   0  42   0  38  13  13, Quantity: TEMPERATURE
   2 Nodes:   0  42   0  38  13  13, Quantity: SOOT VISIBILITY
   3 Nodes:  28  28   0  38   0  22, Quantity: VELOCITY


 Radiation Model Information

   Number of control angles  104
   Time step increment         3
   Angle increment             5
   Theta band N_phi   Solid angle
     1:        4     0.120
     2:       12     0.114
     3:       16     0.127
     4:       20     0.120
     5:       20     0.120
     6:       16     0.127
     7:       12     0.114
     8:        4     0.120
   Using gray gas absorption.
   Mean beam length  1.000E-01 m


 Pressure Zone Information

   1 Volume: 1.2545E+03 m³, Cells: 10036, Mesh: 1, Indices: (36,34,16)
 
 

 Run Time Diagnostics

       Time Step       1   February  4, 2026  05:39:01
       Step Size:    0.241E+00 s, Total Time:       0.24 s
       Pressure Iterations: 1
       Maximum Velocity Error:  0.18E-01 on Mesh 1 at (35,33,17)
       Maximum Pressure Error:  0.88E-04 on Mesh 1 at (37,35,1)
       ---------------------------------------------------------------
       Max CFL number:  0.32E-01 at (42,38,22)
       Max divergence:  0.46E-05 at (42,38,22)
       Min divergence: -0.46E-04 at (34,17,2)
       Max VN number:   0.19E-01 at (38,28,14)
 
       Time Step       2   February  4, 2026  05:39:01
       Step Size:    0.241E+00 s, Total Time:       0.48 s
       Pressure Iterations: 1
       Maximum Velocity Error:  0.26E-01 on Mesh 1 at (31,30,16)
       Maximum Pressure Error:  0.15E-03 on Mesh 1 at (36,17,2)
       ---------------------------------------------------------------
       Max CFL number:  0.64E-01 at (42,38,22)
       Max divergence:  0.76E-01 at (36,17,2)
       Min divergence: -0.26E-04 at (7,10,7)
       Max VN number:   0.14E-01 at (42,12,15)
       Total Heat Release Rate:             10.623 kW
 
       Time Step       3   February  4, 2026  05:39:01
       Step Size:    0.241E+00 s, Total Time:       0.72 s
       Pressure Iterations: 1
       Maximum Velocity Error:  0.34E-01 on Mesh 1 at (24,34,4)
       Maximum Pressure Error:  0.41E-02 on Mesh 1 at (36,17,2)
       ---------------------------------------------------------------
       Max CFL number:  0.93E-01 at (42,38,22)
       Max divergence:  0.14E+00 at (36,17,2)
       Min divergence: -0.41E-04 at (12,24,7)
       Max VN number:   0.33E-01 at (38,6,17)
       Total Heat Release Rate:             17.407 kW
       Radiation Loss to Boundaries:        -0.006 kW
 
       Time Step       4   February  4, 2026  05:39:01
       Step Size:    0.241E+00 s, Total Time:       0.96 s
       Pressure Iterations: 1
       Maximum Velocity Error:  0.44E-01 on Mesh 1 at (24,34,2)
       Maximum Pressure Error:  0.13E+00 on Mesh 1 at (36,17,2)
       ---------------------------------------------------------------
       Max CFL number:  0.14E+00 at (2,36,18)
       Max divergence:  0.20E+00 at (36,17,2)
       Min divergence: -0.88E-04 at (7,22,7)
       Max VN number:   0.67E-01 at (38,6,17)
       Total Heat Release Rate:             41.878 kW
       Radiation Loss to Boundaries:        -3.827 kW
 
       Time Step       5   February  4, 2026  05:39:01
       Step Size:    0.241E+00 s, Total Time:       1.20 s
       Pressure Iterations: 1
       Maximum Velocity Error:  0.45E-01 on Mesh 1 at (24,34,2)
       Maximum Pressure Error:  0.53E+00 on Mesh 1 at (36,17,2)
       ---------------------------------------------------------------
       Max CFL number:  0.19E+00 at (2,36,18)
       Max divergence:  0.22E+00 at (36,17,2)
       Min divergence: -0.78E-04 at (12,24,7)
       Max VN number:   0.89E-01 at (16,36,17)
       Total Heat Release Rate:             41.111 kW
       Radiation Loss to Boundaries:        -7.601 kW
 
       Time Step       6   February  4, 2026  05:39:01
       Step Size:    0.241E+00 s, Total Time:       1.44 s
       Pressure Iterations: 1
       Maximum Velocity Error:  0.34E-01 on Mesh 1 at (24,34,2)
       Maximum Pressure Error:  0.68E+00 on Mesh 1 at (36,17,2)
       ---------------------------------------------------------------
       Max CFL number:  0.24E+00 at (2,36,18)
       Max divergence:  0.24E+00 at (35,17,2)
       Min divergence: -0.16E-03 at (12,24,7)
       Max VN number:   0.10E+00 at (16,36,17)
       Total Heat Release Rate:             88.154 kW
       Radiation Loss to Boundaries:       -17.106 kW
 
       Time Step       7   February  4, 2026  05:39:01
       Step Size:    0.241E+00 s, Total Time:       1.68 s
       Pressure Iterations: 1
       Maximum Velocity Error:  0.29E-01 on Mesh 1 at (36,16,10)
       Maximum Pressure Error:  0.12E+01 on Mesh 1 at (36,17,2)
       ---------------------------------------------------------------
       Max CFL number:  0.26E+00 at (2,36,18)
       Max divergence:  0.12E+00 at (36,17,2)
       Min divergence: -0.93E-04 at (35,16,15)
       Max VN number:   0.11E+00 at (16,36,17)
       Total Heat Release Rate:             53.116 kW
       Radiation Loss to Boundaries:       -12.921 kW
 
       Time Step       8   February  4, 2026  05:39:02
       Step Size:    0.241E+00 s, Total Time:       1.93 s
       Pressure Iterations: 1
       Maximum Velocity Error:  0.37E-01 on Mesh 1 at (36,16,10)
       Maximum Pressure Error:  0.44E+00 on Mesh 1 at (36,17,2)
       ---------------------------------------------------------------
       Max CFL number:  0.27E+00 at (2,36,18)
       Max divergence:  0.29E+00 at (29,17,2)
       Min divergence: -0.18E-03 at (24,34,15)
       Max VN number:   0.98E-01 at (16,36,17)
       Total Heat Release Rate:            101.732 kW
       Radiation Loss to Boundaries:       -23.979 kW
 
       Time Step       9   February  4, 2026  05:39:02
       Step Size:    0.241E+00 s, Total Time:       2.17 s
       Pressure Iterations: 1
       Maximum Velocity Error:  0.34E-01 on Mesh 1 at (24,34,2)
       Maximum Pressure Error:  0.97E+00 on Mesh 1 at (29,17,2)
       ---------------------------------------------------------------
       Max CFL number:  0.32E+00 at (36,17,2)
       Max divergence:  0.89E-01 at (30,17,2)
       Min divergence: -0.11E-03 at (31,34,15)
       Max VN number:   0.88E-01 at (38,10,17)
       Total Heat Release Rate:             73.978 kW
       Radiation Loss to Boundaries:       -29.162 kW
 
       Time Step      10   February  4, 2026  05:39:02
       Step Size:    0.241E+00 s, Total Time:       2.41 s
       Pressure Iterations: 1
       Maximum Velocity Error:  0.50E-01 on Mesh 1 at (24,34,2)
       Maximum Pressure Error:  0.18E+00 on Mesh 1 at (36,17,2)
       ---------------------------------------------------------------
       Max CFL number:  0.39E+00 at (36,17,2)
       Max divergence:  0.19E+00 at (32,17,2)
       Min divergence: -0.16E-03 at (36,33,15)
       Max VN number:   0.98E-01 at (35,17,3)
       Total Heat Release Rate:             92.077 kW
       Radiation Loss to Boundaries:       -22.130 kW
 
       Time Step      20   February  4, 2026  05:39:03
       Step Size:    0.206E+00 s, Total Time:       4.74 s
       Pressure Iterations: 1
       Maximum Velocity Error:  0.74E-01 on Mesh 1 at (36,17,7)
       Maximum Pressure Error:  0.42E+00 on Mesh 1 at (36,17,7)
       ---------------------------------------------------------------
       Max CFL number:  0.87E+00 at (36,17,7)
       Max divergence:  0.19E+00 at (36,17,2)
       Min divergence: -0.23E-01 at (35,17,5)
       Max VN number:   0.39E+00 at (36,18,4)
       Total Heat Release Rate:            141.645 kW
       Radiation Loss to Boundaries:       -33.287 kW
 
       Time Step      30   February  4, 2026  05:39:04
       Step Size:    0.185E+00 s, Total Time:       6.60 s
       Pressure Iterations: 1
       Maximum Velocity Error:  0.10E+00 on Mesh 1 at (33,17,8)
       Maximum Pressure Error:  0.28E+00 on Mesh 1 at (33,17,8)
       ---------------------------------------------------------------
       Max CFL number:  0.93E+00 at (32,17,8)
       Max divergence:  0.24E+00 at (36,17,2)
       Min divergence: -0.29E-01 at (32,17,7)
       Max VN number:   0.76E+00 at (36,19,7)
       Total Heat Release Rate:            187.444 kW
       Radiation Loss to Boundaries:       -33.856 kW
 
       Time Step      40   February  4, 2026  05:39:05
       Step Size:    0.157E+00 s, Total Time:       8.39 s
       Pressure Iterations: 1
       Maximum Velocity Error:  0.82E-01 on Mesh 1 at (36,16,7)
       Maximum Pressure Error:  0.39E+00 on Mesh 1 at (36,16,4)
       ---------------------------------------------------------------
       Max CFL number:  0.93E+00 at (36,16,5)
       Max divergence:  0.34E+00 at (33,17,2)
       Min divergence: -0.35E-01 at (36,16,6)
       Max VN number:   0.85E+00 at (29,16,6)
       Total Heat Release Rate:            259.949 kW
       Radiation Loss to Boundaries:       -50.348 kW
 
       Time Step      50   February  4, 2026  05:39:06
       Step Size:    0.110E+00 s, Total Time:       9.75 s
       Pressure Iterations: 1
       Maximum Velocity Error:  0.48E-01 on Mesh 1 at (33,15,7)
       Maximum Pressure Error:  0.40E+00 on Mesh 1 at (33,16,7)
       ---------------------------------------------------------------
       Max CFL number:  0.66E+00 at (36,18,8)
       Max divergence:  0.41E+00 at (33,17,2)
       Min divergence: -0.59E-01 at (36,17,5)
       Max VN number:   0.88E+00 at (35,16,7)
       Total Heat Release Rate:            294.164 kW
       Radiation Loss to Boundaries:       -65.352 kW
 
       Time Step      60   February  4, 2026  05:39:07
       Step Size:    0.121E+00 s, Total Time:      10.89 s
       Pressure Iterations: 1
       Maximum Velocity Error:  0.82E-01 on Mesh 1 at (34,15,7)
       Maximum Pressure Error:  0.78E+00 on Mesh 1 at (33,16,6)
       ---------------------------------------------------------------
       Max CFL number:  0.90E+00 at (36,19,8)
       Max divergence:  0.45E+00 at (36,17,2)
       Min divergence: -0.56E-01 at (34,20,8)
       Max VN number:   0.93E+00 at (36,17,6)
       Total Heat Release Rate:            318.090 kW
       Radiation Loss to Boundaries:       -69.624 kW
 
       Time Step      70   February  4, 2026  05:39:07
       Step Size:    0.105E+00 s, Total Time:      11.99 s
       Pressure Iterations: 1
       Maximum Velocity Error:  0.61E-01 on Mesh 1 at (36,16,8)
       Maximum Pressure Error:  0.12E+01 on Mesh 1 at (36,16,8)
       ---------------------------------------------------------------
       Max CFL number:  0.84E+00 at (35,20,8)
       Max divergence:  0.49E+00 at (33,17,2)
       Min divergence: -0.60E-01 at (35,19,8)
       Max VN number:   0.67E+00 at (36,19,12)
       Total Heat Release Rate:            357.821 kW
       Radiation Loss to Boundaries:       -74.098 kW
 
       Time Step      80   February  4, 2026  05:39:09
       Step Size:    0.113E+00 s, Total Time:      13.08 s
       Pressure Iterations: 1
       Maximum Velocity Error:  0.80E-01 on Mesh 1 at (36,23,13)
       Maximum Pressure Error:  0.82E+00 on Mesh 1 at (34,16,8)
       ---------------------------------------------------------------
       Max CFL number:  0.82E+00 at (35,19,8)
       Max divergence:  0.54E+00 at (34,17,2)
       Min divergence: -0.90E-01 at (35,19,8)
       Max VN number:   0.90E+00 at (36,20,14)
       Total Heat Release Rate:            383.008 kW
       Radiation Loss to Boundaries:       -87.188 kW
 
       Time Step      90   February  4, 2026  05:39:11
       Step Size:    0.113E+00 s, Total Time:      14.21 s
       Pressure Iterations: 1
       Maximum Velocity Error:  0.93E-01 on Mesh 1 at (33,26,16)
       Maximum Pressure Error:  0.43E+00 on Mesh 1 at (36,16,8)
       ---------------------------------------------------------------
       Max CFL number:  0.88E+00 at (36,24,11)
       Max divergence:  0.54E+00 at (35,17,2)
       Min divergence: -0.63E-01 at (31,17,6)
       Max VN number:   0.71E+00 at (31,16,7)
       Total Heat Release Rate:            426.049 kW
       Radiation Loss to Boundaries:       -96.226 kW
 
       Time Step     100   February  4, 2026  05:39:12
       Step Size:    0.125E+00 s, Total Time:      15.42 s
       Pressure Iterations: 1
       Maximum Velocity Error:  0.13E+00 on Mesh 1 at (36,29,14)
       Maximum Pressure Error:  0.66E+00 on Mesh 1 at (32,16,7)
       ---------------------------------------------------------------
       Max CFL number:  0.95E+00 at (36,27,14)
       Max divergence:  0.59E+00 at (33,17,2)
       Min divergence: -0.82E-01 at (35,19,8)
       Max VN number:   0.99E+00 at (31,16,7)
       Total Heat Release Rate:            466.285 kW
       Radiation Loss to Boundaries:      -101.906 kW
 
       Time Step     200   February  4, 2026  05:39:28
       Step Size:    0.962E-01 s, Total Time:      25.41 s
       Pressure Iterations: 1
       Maximum Velocity Error:  0.36E-01 on Mesh 1 at (36,24,11)
       Maximum Pressure Error:  0.86E+00 on Mesh 1 at (34,16,6)
       ---------------------------------------------------------------
       Max CFL number:  0.86E+00 at (35,19,8)
       Max divergence:  0.96E+00 at (36,17,2)
       Min divergence: -0.12E+00 at (35,19,8)
       Max VN number:   0.92E+00 at (36,22,15)
       Total Heat Release Rate:            767.843 kW
       Radiation Loss to Boundaries:      -184.645 kW
 
       Time Step     300   February  4, 2026  05:39:44
       Step Size:    0.879E-01 s, Total Time:      34.16 s
       Pressure Iterations: 1
       Maximum Velocity Error:  0.48E-01 on Mesh 1 at (36,22,11)
       Maximum Pressure Error:  0.67E+00 on Mesh 1 at (31,17,2)
       ---------------------------------------------------------------
       Max CFL number:  0.84E+00 at (34,19,8)
       Max divergence:  0.12E+01 at (32,17,2)
       Min divergence: -0.14E+00 at (34,19,8)
       Max VN number:   0.95E+00 at (36,22,15)
       Total Heat Release Rate:           1047.692 kW
       Radiation Loss to Boundaries:      -269.888 kW
 
       Time Step     400   February  4, 2026  05:40:00
       Step Size:    0.751E-01 s, Total Time:      41.60 s
       Pressure Iterations: 1
       Maximum Velocity Error:  0.75E-01 on Mesh 1 at (34,24,16)
       Maximum Pressure Error:  0.28E+01 on Mesh 1 at (36,16,2)
       ---------------------------------------------------------------
       Max CFL number:  0.90E+00 at (35,19,8)
       Max divergence:  0.19E+01 at (35,17,2)
       Min divergence: -0.19E+00 at (36,16,5)
       Max VN number:   0.89E+00 at (25,32,16)
       Total Heat Release Rate:           1265.444 kW
       Radiation Loss to Boundaries:      -294.038 kW
 
       Time Step     500   February  4, 2026  05:40:16
       Step Size:    0.732E-01 s, Total Time:      48.88 s
       Pressure Iterations: 1
       Maximum Velocity Error:  0.14E+00 on Mesh 1 at (36,27,16)
       Maximum Pressure Error:  0.35E+01 on Mesh 1 at (36,27,16)
       ---------------------------------------------------------------
       Max CFL number:  0.86E+00 at (36,19,8)
       Max divergence:  0.16E+01 at (30,17,2)
       Min divergence: -0.37E+00 at (32,16,5)
       Max VN number:   0.86E+00 at (31,16,5)
       Total Heat Release Rate:           1437.477 kW
       Radiation Loss to Boundaries:      -393.172 kW
 
       Time Step     600   February  4, 2026  05:40:30
       Step Size:    0.612E-01 s, Total Time:      55.88 s
       Pressure Iterations: 1
       Maximum Velocity Error:  0.16E+00 on Mesh 1 at (36,16,8)
       Maximum Pressure Error:  0.11E+02 on Mesh 1 at (36,16,8)
       ---------------------------------------------------------------
       Max CFL number:  0.87E+00 at (36,19,8)
       Max divergence:  0.18E+01 at (35,17,2)
       Min divergence: -0.29E+00 at (33,16,6)
       Max VN number:   0.78E+00 at (36,23,15)
       Total Heat Release Rate:           1653.855 kW
       Radiation Loss to Boundaries:      -420.813 kW
 
       Time Step     700   February  4, 2026  05:40:44
       Step Size:    0.601E-01 s, Total Time:      62.61 s
       Pressure Iterations: 1
       Maximum Velocity Error:  0.88E-01 on Mesh 1 at (36,26,11)
       Maximum Pressure Error:  0.33E+01 on Mesh 1 at (36,16,2)
       ---------------------------------------------------------------
       Max CFL number:  0.89E+00 at (36,20,8)
       Max divergence:  0.22E+01 at (33,17,2)
       Min divergence: -0.28E+00 at (33,16,5)
       Max VN number:   0.58E+00 at (36,24,7)
       Total Heat Release Rate:           1852.822 kW
       Radiation Loss to Boundaries:      -537.968 kW
 
       Time Step     800   February  4, 2026  05:40:58
       Step Size:    0.566E-01 s, Total Time:      68.93 s
       Pressure Iterations: 1
       Maximum Velocity Error:  0.14E+00 on Mesh 1 at (36,16,8)
       Maximum Pressure Error:  0.19E+02 on Mesh 1 at (36,16,8)
       ---------------------------------------------------------------
       Max CFL number:  0.79E+00 at (36,19,8)
       Max divergence:  0.19E+01 at (35,17,2)
       Min divergence: -0.55E+00 at (36,16,8)
       Max VN number:   0.71E+00 at (36,18,5)
       Total Heat Release Rate:           2176.738 kW
       Radiation Loss to Boundaries:      -670.085 kW
 
       Time Step     900   February  4, 2026  05:41:12
       Step Size:    0.576E-01 s, Total Time:      75.03 s
       Pressure Iterations: 1
       Maximum Velocity Error:  0.82E-01 on Mesh 1 at (33,15,5)
       Maximum Pressure Error:  0.48E+01 on Mesh 1 at (33,16,5)
       ---------------------------------------------------------------
       Max CFL number:  0.86E+00 at (35,19,8)
       Max divergence:  0.23E+01 at (35,17,2)
       Min divergence: -0.42E+00 at (33,16,6)
       Max VN number:   0.90E+00 at (31,16,6)
       Total Heat Release Rate:           2271.560 kW
       Radiation Loss to Boundaries:      -719.539 kW
 
       Time Step    1000   February  4, 2026  05:41:26
       Step Size:    0.605E-01 s, Total Time:      81.27 s
       Pressure Iterations: 1
       Maximum Velocity Error:  0.74E-01 on Mesh 1 at (27,16,8)
       Maximum Pressure Error:  0.54E+01 on Mesh 1 at (31,17,2)
       ---------------------------------------------------------------
       Max CFL number:  0.84E+00 at (36,20,8)
       Max divergence:  0.24E+01 at (35,17,2)
       Min divergence: -0.32E+00 at (36,16,5)
       Max VN number:   0.90E+00 at (36,33,14)
       Total Heat Release Rate:           2262.311 kW
       Radiation Loss to Boundaries:      -734.215 kW
 
       Time Step    1100   February  4, 2026  05:41:39
       Step Size:    0.666E-01 s, Total Time:      87.57 s
       Pressure Iterations: 1
       Maximum Velocity Error:  0.11E+00 on Mesh 1 at (32,15,6)
       Maximum Pressure Error:  0.68E+01 on Mesh 1 at (32,16,6)
       ---------------------------------------------------------------
       Max CFL number:  0.93E+00 at (34,19,8)
       Max divergence:  0.20E+01 at (32,17,2)
       Min divergence: -0.38E+00 at (33,20,8)
       Max VN number:   0.72E+00 at (36,17,5)
       Total Heat Release Rate:           2264.127 kW
       Radiation Loss to Boundaries:      -701.228 kW
 
       Time Step    1200   February  4, 2026  05:41:54
       Step Size:    0.627E-01 s, Total Time:      93.95 s
       Pressure Iterations: 1
       Maximum Velocity Error:  0.12E+00 on Mesh 1 at (36,25,16)
       Maximum Pressure Error:  0.59E+01 on Mesh 1 at (35,17,2)
       ---------------------------------------------------------------
       Max CFL number:  0.87E+00 at (35,19,8)
       Max divergence:  0.28E+01 at (34,17,2)
       Min divergence: -0.39E+00 at (36,16,7)
       Max VN number:   0.73E+00 at (36,27,15)
       Total Heat Release Rate:           2377.747 kW
       Radiation Loss to Boundaries:      -836.649 kW
 
       Time Step    1300   February  4, 2026  05:42:09
       Step Size:    0.716E-01 s, Total Time:     100.39 s
       Pressure Iterations: 1
       Maximum Velocity Error:  0.15E+00 on Mesh 1 at (36,27,14)
       Maximum Pressure Error:  0.15E+02 on Mesh 1 at (31,17,2)
       ---------------------------------------------------------------
       Max CFL number:  0.96E+00 at (36,20,8)
       Max divergence:  0.18E+01 at (35,17,2)
       Min divergence: -0.26E+00 at (33,16,7)
       Max VN number:   0.61E+00 at (36,28,8)
       Total Heat Release Rate:           2622.023 kW
       Radiation Loss to Boundaries:     -1051.644 kW
 
       Time Step    1400   February  4, 2026  05:42:24
       Step Size:    0.610E-01 s, Total Time:     106.75 s
       Pressure Iterations: 1
       Maximum Velocity Error:  0.14E+00 on Mesh 1 at (32,15,6)
       Maximum Pressure Error:  0.39E+01 on Mesh 1 at (32,16,6)
       ---------------------------------------------------------------
       Max CFL number:  0.79E+00 at (32,16,8)
       Max divergence:  0.21E+01 at (35,17,2)
       Min divergence: -0.31E+00 at (33,16,6)
       Max VN number:   0.97E+00 at (31,16,6)
       Total Heat Release Rate:           2231.340 kW
       Radiation Loss to Boundaries:      -859.352 kW
 
       Time Step    1500   February  4, 2026  05:42:39
       Step Size:    0.667E-01 s, Total Time:     113.21 s
       Pressure Iterations: 1
       Maximum Velocity Error:  0.10E+00 on Mesh 1 at (36,15,6)
       Maximum Pressure Error:  0.60E+01 on Mesh 1 at (36,16,2)
       ---------------------------------------------------------------
       Max CFL number:  0.81E+00 at (36,20,8)
       Max divergence:  0.19E+01 at (33,17,2)
       Min divergence: -0.29E+00 at (36,16,4)
       Max VN number:   0.79E+00 at (36,17,7)
       Total Heat Release Rate:           2249.484 kW
       Radiation Loss to Boundaries:      -922.114 kW
 
       Time Step    1600   February  4, 2026  05:42:52
       Step Size:    0.687E-01 s, Total Time:     119.93 s
       Pressure Iterations: 1
       Maximum Velocity Error:  0.79E-01 on Mesh 1 at (36,24,11)
       Maximum Pressure Error:  0.34E+01 on Mesh 1 at (36,16,2)
       ---------------------------------------------------------------
       Max CFL number:  0.90E+00 at (36,20,8)
       Max divergence:  0.21E+01 at (33,17,2)
       Min divergence: -0.38E+00 at (33,16,4)
       Max VN number:   0.69E+00 at (36,18,6)
       Total Heat Release Rate:           2246.973 kW
       Radiation Loss to Boundaries:      -963.658 kW
 
       Time Step    1700   February  4, 2026  05:43:06
       Step Size:    0.606E-01 s, Total Time:     126.05 s
       Pressure Iterations: 1
       Maximum Velocity Error:  0.12E+00 on Mesh 1 at (33,16,8)
       Maximum Pressure Error:  0.11E+02 on Mesh 1 at (36,17,8)
       ---------------------------------------------------------------
       Max CFL number:  0.92E+00 at (34,19,8)
       Max divergence:  0.17E+01 at (33,17,2)
       Min divergence: -0.43E+00 at (36,16,8)
       Max VN number:   0.66E+00 at (36,18,15)
       Total Heat Release Rate:           2439.818 kW
       Radiation Loss to Boundaries:     -1058.446 kW
 
       Time Step    1800   February  4, 2026  05:43:20
       Step Size:    0.644E-01 s, Total Time:     132.24 s
       Pressure Iterations: 1
       Maximum Velocity Error:  0.10E+00 on Mesh 1 at (36,23,12)
       Maximum Pressure Error:  0.58E+01 on Mesh 1 at (36,16,8)
       ---------------------------------------------------------------
       Max CFL number:  0.83E+00 at (32,16,8)
       Max divergence:  0.19E+01 at (36,17,2)
       Min divergence: -0.27E+00 at (33,16,4)
       Max VN number:   0.91E+00 at (36,17,6)
       Total Heat Release Rate:           2381.059 kW
       Radiation Loss to Boundaries:     -1050.683 kW
 
       Time Step    1900   February  4, 2026  05:43:35
       Step Size:    0.589E-01 s, Total Time:     138.90 s
       Pressure Iterations: 1
       Maximum Velocity Error:  0.18E+00 on Mesh 1 at (36,16,8)
       Maximum Pressure Error:  0.12E+02 on Mesh 1 at (36,16,8)
       ---------------------------------------------------------------
       Max CFL number:  0.94E+00 at (36,19,8)
       Max divergence:  0.28E+01 at (35,17,2)
       Min divergence: -0.45E+00 at (35,16,8)
       Max VN number:   0.70E+00 at (36,17,5)
       Total Heat Release Rate:           2337.093 kW
       Radiation Loss to Boundaries:     -1015.494 kW
 
       Time Step    2000   February  4, 2026  05:43:48
       Step Size:    0.710E-01 s, Total Time:     145.32 s
       Pressure Iterations: 1
       Maximum Velocity Error:  0.13E+00 on Mesh 1 at (36,20,8)
       Maximum Pressure Error:  0.11E+02 on Mesh 1 at (36,16,8)
       ---------------------------------------------------------------
       Max CFL number:  0.98E+00 at (36,20,8)
       Max divergence:  0.19E+01 at (36,17,2)
       Min divergence: -0.31E+00 at (32,16,7)
       Max VN number:   0.89E+00 at (31,16,7)
       Total Heat Release Rate:           2217.900 kW
       Radiation Loss to Boundaries:     -1078.678 kW
 
       Time Step    2100   February  4, 2026  05:44:02
       Step Size:    0.651E-01 s, Total Time:     151.95 s
       Pressure Iterations: 1
       Maximum Velocity Error:  0.65E-01 on Mesh 1 at (35,18,8)
       Maximum Pressure Error:  0.33E+01 on Mesh 1 at (33,16,8)
       ---------------------------------------------------------------
       Max CFL number:  0.84E+00 at (36,19,8)
       Max divergence:  0.17E+01 at (36,17,2)
       Min divergence: -0.35E+00 at (35,16,8)
       Max VN number:   0.59E+00 at (36,21,7)
       Total Heat Release Rate:           2317.775 kW
       Radiation Loss to Boundaries:     -1078.557 kW
 
       Time Step    2200   February  4, 2026  05:44:19
       Step Size:    0.610E-01 s, Total Time:     158.35 s
       Pressure Iterations: 1
       Maximum Velocity Error:  0.82E-01 on Mesh 1 at (25,16,8)
       Maximum Pressure Error:  0.36E+01 on Mesh 1 at (32,16,7)
       ---------------------------------------------------------------
       Max CFL number:  0.84E+00 at (36,20,8)
       Max divergence:  0.20E+01 at (30,17,2)
       Min divergence: -0.30E+00 at (32,16,5)
       Max VN number:   0.57E+00 at (36,17,6)
       Total Heat Release Rate:           2204.480 kW
       Radiation Loss to Boundaries:     -1098.390 kW
 
       Time Step    2300   February  4, 2026  05:44:35
       Step Size:    0.652E-01 s, Total Time:     164.91 s
       Pressure Iterations: 1
       Maximum Velocity Error:  0.19E+00 on Mesh 1 at (32,16,8)
       Maximum Pressure Error:  0.11E+02 on Mesh 1 at (32,16,8)
       ---------------------------------------------------------------
       Max CFL number:  0.93E+00 at (32,16,8)
       Max divergence:  0.18E+01 at (36,17,2)
       Min divergence: -0.30E+00 at (31,16,8)
       Max VN number:   0.94E+00 at (31,16,7)
       Total Heat Release Rate:           2348.939 kW
       Radiation Loss to Boundaries:     -1177.419 kW
 
       Time Step    2400   February  4, 2026  05:44:51
       Step Size:    0.690E-01 s, Total Time:     171.35 s
       Pressure Iterations: 1
       Maximum Velocity Error:  0.12E+00 on Mesh 1 at (36,25,11)
       Maximum Pressure Error:  0.49E+01 on Mesh 1 at (32,16,2)
       ---------------------------------------------------------------
       Max CFL number:  0.88E+00 at (36,18,8)
       Max divergence:  0.18E+01 at (36,17,2)
       Min divergence: -0.23E+00 at (33,16,5)
       Max VN number:   0.61E+00 at (36,20,11)
       Total Heat Release Rate:           2318.857 kW
       Radiation Loss to Boundaries:     -1154.063 kW
 
       Time Step    2500   February  4, 2026  05:45:08
       Step Size:    0.689E-01 s, Total Time:     177.92 s
       Pressure Iterations: 1
       Maximum Velocity Error:  0.78E-01 on Mesh 1 at (36,23,12)
       Maximum Pressure Error:  0.42E+01 on Mesh 1 at (36,16,8)
       ---------------------------------------------------------------
       Max CFL number:  0.85E+00 at (35,18,8)
       Max divergence:  0.18E+01 at (32,17,2)
       Min divergence: -0.28E+00 at (32,17,6)
       Max VN number:   0.80E+00 at (36,21,13)
       Total Heat Release Rate:           2227.333 kW
       Radiation Loss to Boundaries:     -1123.446 kW
 
       Time Step    2600   February  4, 2026  05:45:25
       Step Size:    0.651E-01 s, Total Time:     184.41 s
       Pressure Iterations: 1
       Maximum Velocity Error:  0.12E+00 on Mesh 1 at (36,24,15)
       Maximum Pressure Error:  0.10E+02 on Mesh 1 at (33,17,2)
       ---------------------------------------------------------------
       Max CFL number:  0.76E+00 at (32,17,8)
       Max divergence:  0.22E+01 at (34,17,2)
       Min divergence: -0.34E+00 at (36,16,6)
       Max VN number:   0.88E+00 at (30,16,7)
       Total Heat Release Rate:           2380.491 kW
       Radiation Loss to Boundaries:     -1215.361 kW
 
       Time Step    2700   February  4, 2026  05:45:41
       Step Size:    0.737E-01 s, Total Time:     190.84 s
       Pressure Iterations: 1
       Maximum Velocity Error:  0.13E+00 on Mesh 1 at (36,30,16)
       Maximum Pressure Error:  0.52E+01 on Mesh 1 at (36,16,8)
       ---------------------------------------------------------------
       Max CFL number:  0.97E+00 at (35,19,8)
       Max divergence:  0.20E+01 at (33,17,2)
       Min divergence: -0.48E+00 at (35,20,8)
       Max VN number:   0.91E+00 at (31,16,6)
       Total Heat Release Rate:           2279.925 kW
       Radiation Loss to Boundaries:     -1191.701 kW
 
       Time Step    2800   February  4, 2026  05:46:00
       Step Size:    0.757E-01 s, Total Time:     197.56 s
       Pressure Iterations: 1
       Maximum Velocity Error:  0.17E+00 on Mesh 1 at (32,15,5)
       Maximum Pressure Error:  0.87E+01 on Mesh 1 at (31,16,8)
       ---------------------------------------------------------------
       Max CFL number:  0.97E+00 at (32,16,5)
       Max divergence:  0.21E+01 at (34,17,2)
       Min divergence: -0.39E+00 at (32,16,4)
       Max VN number:   0.72E+00 at (31,16,3)
       Total Heat Release Rate:           2340.639 kW
       Radiation Loss to Boundaries:     -1228.103 kW
 
       Time Step    2900   February  4, 2026  05:46:19
       Step Size:    0.638E-01 s, Total Time:     203.75 s
       Pressure Iterations: 1
       Maximum Velocity Error:  0.11E+00 on Mesh 1 at (36,21,8)
       Maximum Pressure Error:  0.49E+01 on Mesh 1 at (36,16,5)
       ---------------------------------------------------------------
       Max CFL number:  0.82E+00 at (36,19,8)
       Max divergence:  0.20E+01 at (32,17,2)
       Min divergence: -0.30E+00 at (36,17,7)
       Max VN number:   0.73E+00 at (36,17,6)
       Total Heat Release Rate:           2210.935 kW
       Radiation Loss to Boundaries:     -1135.066 kW
 
       Time Step    3000   February  4, 2026  05:46:38
       Step Size:    0.597E-01 s, Total Time:     210.53 s
       Pressure Iterations: 1
       Maximum Velocity Error:  0.11E+00 on Mesh 1 at (36,16,8)
       Maximum Pressure Error:  0.54E+01 on Mesh 1 at (35,16,8)
       ---------------------------------------------------------------
       Max CFL number:  0.82E+00 at (35,19,8)
       Max divergence:  0.18E+01 at (33,17,2)
       Min divergence: -0.38E+00 at (34,19,8)
       Max VN number:   0.74E+00 at (36,19,6)
       Total Heat Release Rate:           2406.263 kW
       Radiation Loss to Boundaries:     -1268.938 kW
 
       Time Step    3100   February  4, 2026  05:46:54
       Step Size:    0.710E-01 s, Total Time:     216.68 s
       Pressure Iterations: 1
       Maximum Velocity Error:  0.10E+00 on Mesh 1 at (36,17,7)
       Maximum Pressure Error:  0.55E+01 on Mesh 1 at (35,16,3)
       ---------------------------------------------------------------
       Max CFL number:  0.81E+00 at (36,18,8)
       Max divergence:  0.17E+01 at (34,17,2)
       Min divergence: -0.47E+00 at (35,17,6)
       Max VN number:   0.92E+00 at (36,17,6)
       Total Heat Release Rate:           2232.703 kW
       Radiation Loss to Boundaries:     -1217.626 kW
 
       Time Step    3200   February  4, 2026  05:47:10
       Step Size:    0.567E-01 s, Total Time:     222.80 s
       Pressure Iterations: 1
       Maximum Velocity Error:  0.11E+00 on Mesh 1 at (32,16,8)
       Maximum Pressure Error:  0.13E+02 on Mesh 1 at (31,17,2)
       ---------------------------------------------------------------
       Max CFL number:  0.80E+00 at (33,16,8)
       Max divergence:  0.19E+01 at (36,17,2)
       Min divergence: -0.50E+00 at (31,16,8)
       Max VN number:   0.90E+00 at (31,16,7)
       Total Heat Release Rate:           2208.337 kW
       Radiation Loss to Boundaries:     -1148.871 kW
 
       Time Step    3300   February  4, 2026  05:47:26
       Step Size:    0.688E-01 s, Total Time:     228.94 s
       Pressure Iterations: 1
       Maximum Velocity Error:  0.19E+00 on Mesh 1 at (36,16,8)
       Maximum Pressure Error:  0.99E+01 on Mesh 1 at (36,16,8)
       ---------------------------------------------------------------
       Max CFL number:  0.99E+00 at (36,19,8)
       Max divergence:  0.20E+01 at (33,17,2)
       Min divergence: -0.36E+00 at (36,19,8)
       Max VN number:   0.64E+00 at (36,20,10)
       Total Heat Release Rate:           2442.735 kW
       Radiation Loss to Boundaries:     -1274.526 kW
 
       Time Step    3400   February  4, 2026  05:47:43
       Step Size:    0.684E-01 s, Total Time:     235.26 s
       Pressure Iterations: 1
       Maximum Velocity Error:  0.22E+00 on Mesh 1 at (34,16,8)
       Maximum Pressure Error:  0.17E+02 on Mesh 1 at (34,16,8)
       ---------------------------------------------------------------
       Max CFL number:  0.90E+00 at (34,16,7)
       Max divergence:  0.18E+01 at (29,17,2)
       Min divergence: -0.38E+00 at (31,16,8)
       Max VN number:   0.70E+00 at (32,16,6)
       Total Heat Release Rate:           2329.609 kW
       Radiation Loss to Boundaries:     -1277.556 kW
 
       Time Step    3500   February  4, 2026  05:47:59
       Step Size:    0.633E-01 s, Total Time:     241.55 s
       Pressure Iterations: 1
       Maximum Velocity Error:  0.13E+00 on Mesh 1 at (36,15,6)
       Maximum Pressure Error:  0.12E+02 on Mesh 1 at (36,16,8)
       ---------------------------------------------------------------
       Max CFL number:  0.86E+00 at (36,19,8)
       Max divergence:  0.19E+01 at (36,17,2)
       Min divergence: -0.55E+00 at (36,16,8)
       Max VN number:   0.64E+00 at (36,22,7)
       Total Heat Release Rate:           2343.252 kW
       Radiation Loss to Boundaries:     -1302.255 kW
 
       Time Step    3600   February  4, 2026  05:48:17
       Step Size:    0.637E-01 s, Total Time:     248.16 s
       Pressure Iterations: 1
       Maximum Velocity Error:  0.10E+00 on Mesh 1 at (36,27,13)
       Maximum Pressure Error:  0.34E+01 on Mesh 1 at (34,16,8)
       ---------------------------------------------------------------
       Max CFL number:  0.86E+00 at (36,26,12)
       Max divergence:  0.17E+01 at (36,17,2)
       Min divergence: -0.25E+00 at (34,16,5)
       Max VN number:   0.51E+00 at (36,17,6)
       Total Heat Release Rate:           2237.265 kW
       Radiation Loss to Boundaries:     -1215.890 kW
 
       Time Step    3700   February  4, 2026  05:48:34
       Step Size:    0.664E-01 s, Total Time:     254.79 s
       Pressure Iterations: 1
       Maximum Velocity Error:  0.98E-01 on Mesh 1 at (32,16,8)
       Maximum Pressure Error:  0.89E+01 on Mesh 1 at (32,16,8)
       ---------------------------------------------------------------
       Max CFL number:  0.91E+00 at (33,16,7)
       Max divergence:  0.17E+01 at (30,17,2)
       Min divergence: -0.31E+00 at (33,16,7)
       Max VN number:   0.89E+00 at (36,17,6)
       Total Heat Release Rate:           2333.330 kW
       Radiation Loss to Boundaries:     -1273.413 kW
 
       Time Step    3800   February  4, 2026  05:48:51
       Step Size:    0.681E-01 s, Total Time:     261.15 s
       Pressure Iterations: 1
       Maximum Velocity Error:  0.93E-01 on Mesh 1 at (36,16,8)
       Maximum Pressure Error:  0.10E+02 on Mesh 1 at (36,16,8)
       ---------------------------------------------------------------
       Max CFL number:  0.94E+00 at (35,19,8)
       Max divergence:  0.17E+01 at (33,17,2)
       Min divergence: -0.55E+00 at (36,16,7)
       Max VN number:   0.73E+00 at (36,17,7)
       Total Heat Release Rate:           2383.731 kW
       Radiation Loss to Boundaries:     -1322.061 kW
 
       Time Step    3900   February  4, 2026  05:49:08
       Step Size:    0.649E-01 s, Total Time:     267.52 s
       Pressure Iterations: 1
       Maximum Velocity Error:  0.10E+00 on Mesh 1 at (33,15,7)
       Maximum Pressure Error:  0.37E+01 on Mesh 1 at (33,16,7)
       ---------------------------------------------------------------
       Max CFL number:  0.87E+00 at (33,18,8)
       Max divergence:  0.20E+01 at (34,17,2)
       Min divergence: -0.37E+00 at (33,16,6)
       Max VN number:   0.53E+00 at (36,22,5)
       Total Heat Release Rate:           2453.598 kW
       Radiation Loss to Boundaries:     -1286.955 kW
 
       Time Step    4000   February  4, 2026  05:49:27
       Step Size:    0.705E-01 s, Total Time:     274.08 s
       Pressure Iterations: 1
       Maximum Velocity Error:  0.14E+00 on Mesh 1 at (36,16,8)
       Maximum Pressure Error:  0.81E+01 on Mesh 1 at (36,16,8)
       ---------------------------------------------------------------
       Max CFL number:  0.89E+00 at (35,19,8)
       Max divergence:  0.19E+01 at (30,17,2)
       Min divergence: -0.36E+00 at (31,16,5)
       Max VN number:   0.64E+00 at (29,16,3)
       Total Heat Release Rate:           2324.534 kW
       Radiation Loss to Boundaries:     -1303.979 kW
 
       Time Step    4100   February  4, 2026  05:49:45
       Step Size:    0.600E-01 s, Total Time:     280.73 s
       Pressure Iterations: 1
       Maximum Velocity Error:  0.82E-01 on Mesh 1 at (36,19,8)
       Maximum Pressure Error:  0.60E+01 on Mesh 1 at (36,18,8)
       ---------------------------------------------------------------
       Max CFL number:  0.86E+00 at (36,19,8)
       Max divergence:  0.21E+01 at (33,17,2)
       Min divergence: -0.29E+00 at (33,16,7)
       Max VN number:   0.92E+00 at (32,16,7)
       Total Heat Release Rate:           2296.277 kW
       Radiation Loss to Boundaries:     -1279.197 kW
 
       Time Step    4200   February  4, 2026  05:50:04
       Step Size:    0.588E-01 s, Total Time:     287.38 s
       Pressure Iterations: 1
       Maximum Velocity Error:  0.12E+00 on Mesh 1 at (36,16,8)
       Maximum Pressure Error:  0.75E+01 on Mesh 1 at (36,16,8)
       ---------------------------------------------------------------
       Max CFL number:  0.88E+00 at (36,20,8)
       Max divergence:  0.19E+01 at (36,17,2)
       Min divergence: -0.26E+00 at (35,19,8)
       Max VN number:   0.72E+00 at (32,16,7)
       Total Heat Release Rate:           2320.064 kW
       Radiation Loss to Boundaries:     -1306.645 kW
 
       Time Step    4300   February  4, 2026  05:50:22
       Step Size:    0.679E-01 s, Total Time:     293.84 s
       Pressure Iterations: 1
       Maximum Velocity Error:  0.14E+00 on Mesh 1 at (34,16,8)
       Maximum Pressure Error:  0.37E+01 on Mesh 1 at (34,16,8)
       ---------------------------------------------------------------
       Max CFL number:  0.86E+00 at (34,18,8)
       Max divergence:  0.17E+01 at (36,17,2)
       Min divergence: -0.22E+00 at (33,16,6)
       Max VN number:   0.50E+00 at (22,3,16)
       Total Heat Release Rate:           2258.266 kW
       Radiation Loss to Boundaries:     -1244.561 kW
 
       Time Step    4396   February  4, 2026  05:50:36
       Step Size:    0.307E-01 s, Total Time:     300.00 s
       Pressure Iterations: 1
       Maximum Velocity Error:  0.70E-01 on Mesh 1 at (31,16,8)
       Maximum Pressure Error:  0.25E+02 on Mesh 1 at (31,17,2)
       ---------------------------------------------------------------
       Max CFL number:  0.37E+00 at (31,17,8)
       Max divergence:  0.20E+01 at (35,17,2)
       Min divergence: -0.30E+00 at (28,16,8)
       Max VN number:   0.26E+00 at (32,16,6)
       Total Heat Release Rate:           2509.893 kW
       Radiation Loss to Boundaries:     -1338.686 kW
 


 Time Stepping Wall Clock Time (s):      695.178
 Total Elapsed Wall Clock Time (s):      697.700

STOP: FDS completed successfully (CHID: Michael Fast 0.5m 0.02SY)
